 Abaqus/Standard 2024                  DATE 21-Feb-2026 TIME 02:02:07
 SUMMARY OF JOB INFORMATION:
 STEP  INC ATT SEVERE EQUIL TOTAL  TOTAL      STEP       INC OF       DOF    IF
               DISCON ITERS ITERS  TIME/    TIME/LPF    TIME/LPF    MONITOR RIKS
               ITERS               FREQ
   1     1   1     0     3     3  0.00100    0.00100    0.001000  
   1     2   1     0     2     2  0.00200    0.00200    0.001000  
   1     3   1     0     2     2  0.00300    0.00300    0.001000  
   1     4   1     0     2     2  0.00400    0.00400    0.001000  
   1     5   1     0     1     1  0.00500    0.00500    0.001000  
   1     6   1     0     1     1  0.00600    0.00600    0.001000  
   1     7   1     0     1     1  0.00700    0.00700    0.001000  
   1     8   1U    0     1     1  0.00700    0.00700    0.001000  
   1     8   2     0     1     1  0.00775    0.00775    0.0007500 
   1     9   1U    0     1     1  0.00775    0.00775    0.0009375 
   1     9   2     0     1     1  0.00822    0.00822    0.0004687 
   1    10   1U    0     1     1  0.00822    0.00822    0.0005859 
   1    10   2     0     1     1  0.00866    0.00866    0.0004395 
   1    11   1U    0     1     1  0.00866    0.00866    0.0005493 
   1    11   2     0     1     1  0.00907    0.00907    0.0004120 
   1    12   1U    0     1     1  0.00907    0.00907    0.0005150 
   1    12   2     0     1     1  0.00946    0.00946    0.0003862 
   1    13   1U    0     1     1  0.00946    0.00946    0.0004828 
   1    13   2U    0     1     1  0.00946    0.00946    0.0003621 
   1    13   3     0     1     1  0.00973    0.00973    0.0002716 
   1    14   1     0     1     1  0.0100     0.0100     0.0002720 
                          
 THE ANALYSIS HAS COMPLETED SUCCESSFULLY
