1

   Abaqus 2024                                  Date 20-Feb-2026   Time 12:54:50
   For use by Supplied by Team-SolidSQUAD under license from Dassault Systemes or its subsidiary.



                         The Abaqus Software is a product of:

                           Dassault Systemes SIMULIA Corp.
                           1301 Atwood Avenue, Suite 101W
                              Johnston, RI 02919, USA
 


                   The Abaqus Software is available only under license
                   from Dassault Systemes or its subsidiary and may be
                   used or reproduced only in accordance with the terms
                   of such license.
 
                          On machine nexus 
                          you are authorized to run
                          Abaqus/Standard until 31-Dec-2055

                          Your site id is:  


 
                    For assistance or any other information you may
                    obtain contact information for your local office
                    from the world wide web at:

                      https://www.3ds.com/products-services/simulia/services-support/

 
                * * * * * * * * * * * * * * * * * * * * * * * * * * * * * * 
                *                                                         * 
                *                   *****************                     * 
                *                   *  N O T I C E  *                     * 
                *                   *****************                     * 
                *                                                         * 
                *                                                         * 
                *                       Abaqus 2024                       * 
                *                                                         * 
                *       BUILD ID: 2023_09_21-13.55.25 RELr426 190762      * 
                *                                                         * 
                *                                                         * 
                *  Please make sure you are using                         * 
                *  release Abaqus 2024 manuals                            * 
                *  plus the notes accompanying this release.              * 
                *                                                         * 
                *                                                         * 
                *                                                         * 
                *                                                         * 
                * * * * * * * * * * * * * * * * * * * * * * * * * * * * * * 


 



     PROCESSING PART, INSTANCE, AND ASSEMBLY INFORMATION
   *******************************************************


     END PROCESSING PART, INSTANCE, AND ASSEMBLY INFORMATION
   ***********************************************************

1

   Abaqus 2024                                  Date 20-Feb-2026   Time 12:54:50
   For use by Supplied by Team-SolidSQUAD under license from Dassault Systemes or its subsidiary.

                                                                                     

                                      P A R A M E T E R   I N T E R P R E T A T I O N


                     
                     ***COMMENT: STARTING PARAMETER EVALUATION
                     
                     ***COMMENT: STARTING PARAMETER SUBSTITUTION
     LINE     5      
                     ***WARNING: PARAMETER 'initMU' APPEARS IN A COMMENT LINE, BUT IT IS NOT DEFINED.
                     
                     ***WARNING: PARAMETER 'tRamp' APPEARS IN A COMMENT LINE, BUT IT IS NOT DEFINED.
                     
     LINE    10      ***WARNING: PARAMETER 'mu0' APPEARS IN A COMMENT LINE, BUT IT IS NOT DEFINED.
                     
                     ***WARNING: PARAMETER 'tf' APPEARS IN A COMMENT LINE, BUT IT IS NOT DEFINED.
                     
                     ***WARNING: SUBSTITUTION OF PARAMETERS FAILED
     LINE    15      
                     ***COMMENT: EVALUATION AND SUBSTITUTION OF PARAMETERS COMPLETED
                    --------------------------------------------------------------------------------
                        5   10   15   20   25   30   35   40   45   50   55   60   65   70   75   80
                    --------------------------------------------------------------------------------



     OPTIONS BEING PROCESSED
   ***************************


  *User Element, type=U3,Nodes=8,Coordinates=3,Properties=3,Iproperties=2,Variables=8,Unsymm
  *Heading
          Sample UEL usage                                                                                                                                                                                                                                                                                                                                                                                                                                                                                                                
  *Element, type=U3, elset=main_mesh
  *Element, type=C3D8, elset=dummy_mesh
  *Elset, elset=Surf
  *Material, name=dummy_material
  *User output variables
  *elastic
  *Solid section, elset=dummy_mesh, material=dummy_material
  *User Element, type=U3,Nodes=8,Coordinates=3,Properties=3,Iproperties=2,Variables=8,Unsymm
  *Solid section, elset=dummy_mesh, material=dummy_material
  *Hourglass stiffness

 ***WARNING: THE *HOURGLASS STIFFNESS OPTION IS RELEVANT FOR THESE ELEMENTS 
             ONLY: C3D4H, C3D8R, C3D8RH, EC3D8R, EC3D8RT, C3D10M, C3D10MH, 
             CAX4R, CAX4RH, CAX6M, CAX6MH, CPEG4R, CPEG4RH, CPE4R, CPE4RH, 
             CPE6M, CPE6MH, CPS4R, CPS6M, M3D4R, M3D9R, S3/S3R, S4/S4R, 
             S4R5,S8R, S8R5, S9R5, SC6R, SC8R, STRI3, AND SAXA ELEMENTS. FOR 
             THESE ELEMENTS ONLY THE DRILL SCALE FACTOR IS RELEVANT: STRI3, 
             S3/S3R, S4, S8R, AND SAXA ELEMENTS.
  *Imperfection

 ***NOTE: IMPERFECTION DEFINED BY NODE NUMBER AND VALUES OF IMPERFECTION.
  *Boundary
  *Boundary
  *Boundary
  *Boundary
  *Boundary
  *Boundary
  *uel property, elset=main_mesh
  *Output, field, time marks=no
  *element output, elset=dummy_mesh
  *Output, field, time marks=no
  *element output, elset=dummy_mesh
  *Output, field, time marks=no
  *element output, elset=dummy_mesh
  *Step, name=static1, nlgeom=Yes, inc=10000
  *Output, field, time marks=no
  *Step, name=static1, nlgeom=Yes, inc=10000
  *Step, name=static1, nlgeom=Yes, inc=10000
  *Static
  *Boundary
  *Boundary
  *Boundary
  *Output, field, time marks=no
  *node output, nset=all_nodes
  *element output, elset=dummy_mesh
  *End Step

 ***WARNING: THE *ELEMENT OUTPUT OPTION IS NOT SUPPORTED FOR USER ELEMENTS
  *Step, name=static1, nlgeom=Yes, inc=10000
  *Static
  *Boundary
  *Boundary
  *Boundary
  *End Step



                            P R O B L E M   S I Z E


          NUMBER OF ELEMENTS IS                                     2
          NUMBER OF NODES IS                                        8
          NUMBER OF NODES DEFINED BY THE USER                       8
          TOTAL NUMBER OF VARIABLES IN THE MODEL                   24
          (DEGREES OF FREEDOM PLUS MAX NO. OF ANY LAGRANGE MULTIPLIER
           VARIABLES. INCLUDE *PRINT,SOLVE=YES TO GET THE ACTUAL NUMBER.)



                              END OF USER INPUT PROCESSING



     JOB TIME SUMMARY
       USER TIME (SEC)      =     0.12    
       SYSTEM TIME (SEC)    =     2.00E-02
       TOTAL CPU TIME (SEC) =     0.14    
       WALLCLOCK TIME (SEC) =            0
1

   Abaqus 2024                                  Date 20-Feb-2026   Time 12:54:51
   For use by Supplied by Team-SolidSQUAD under license from Dassault Systemes or its subsidiary.

     Sample UEL usage                                                                          STEP    1  INCREMENT    1
                                                                                          TIME COMPLETED IN THIS STEP   0.00    


                        S T E P       1     S T A T I C   A N A L Y S I S


                                                                                          

     AUTOMATIC TIME CONTROL WITH -
          A SUGGESTED INITIAL TIME INCREMENT OF                1.000E-03
          AND A TOTAL TIME PERIOD OF                           1.000E-02
          THE MINIMUM TIME INCREMENT ALLOWED IS                1.000E-05
          THE MAXIMUM TIME INCREMENT ALLOWED IS                1.000E-03

     LINEAR EQUATION SOLVER TYPE         DIRECT SPARSE

          LARGE DISPLACEMENT THEORY WILL BE USED

          UNSYMMETRIC MATRIX STORAGE AND SOLUTION WILL BE USED
  
                   M E M O R Y   E S T I M A T E
  
 PROCESS      FLOATING PT       MINIMUM MEMORY        MEMORY TO
              OPERATIONS           REQUIRED          MINIMIZE I/O
             PER ITERATION           (MB)               (MB)
  
     1          9.25E+03               17                 24
  
 NOTE:
      (1) SINCE ABAQUS DOES NOT PRE-ALLOCATE MEMORY AND ONLY ALLOCATES MEMORY AS NEEDED DURING THE ANALYSIS,
          THE MEMORY REQUIREMENT PRINTED HERE CAN ONLY BE VIEWED AS A GENERAL GUIDELINE BASED ON THE BEST
          KNOWLEDGE AVAILABLE AT THE BEGINNING OF A STEP BEFORE THE SOLUTION PROCESS HAS BEGUN.
      (2) THE ESTIMATE IS NORMALLY UPDATED AT THE BEGINNING OF EVERY STEP. IT IS THE MAXIMUM VALUE OF THE
          ESTIMATE FROM THE CURRENT STEP TO THE LAST STEP OF THE ANALYSIS, WITH UNSYMMETRIC SOLUTION TAKEN
          INTO ACCOUNT IF APPLICABLE. 
      (3) SINCE THE ESTIMATE IS BASED ON THE ACTIVE DEGREES OF FREEDOM IN THE FIRST ITERATION OF THE 
          CURRENT STEP, THE MEMORY ESTIMATE MIGHT BE SIGNIFICANTLY DIFFERENT THAN ACTUAL USAGE FOR 
          PROBLEMS WITH SUBSTANTIAL CHANGES IN ACTIVE DEGREES OF FREEDOM BETWEEN STEPS (OR EVEN WITHIN
          THE SAME STEP). EXAMPLES ARE: PROBLEMS WITH SIGNIFICANT CONTACT CHANGES, PROBLEMS WITH MODEL
          CHANGE, PROBLEMS WITH BOTH STATIC STEP AND STEADY STATE DYNAMIC PROCEDURES WHERE ACOUSTIC 
          ELEMENTS WILL ONLY BE ACTIVATED IN THE STEADY STATE DYNAMIC STEPS.
      (4) FOR MULTI-PROCESS EXECUTION, THE ESTIMATED VALUE OF FLOATING POINT OPERATIONS FOR EACH PROCESS
          IS BASED ON AN INITIAL SCHEDULING OF OPERATIONS AND MIGHT NOT REFLECT THE ACTUAL FLOATING 
          POINT OPERATIONS COMPLETED ON EACH PROCESS. OPERATIONS ARE DYNAMICALLY BALANCED DURING EXECUTION, 
          SO THE ACTUAL BALANCE OF OPERATIONS BETWEEN PROCESSES IS EXPECTED TO BE BETTER THAN THE ESTIMATE
          PRINTED HERE.
      (5) THE UPPER LIMIT OF MEMORY THAT CAN BE ALLOCATED BY ABAQUS WILL IN GENERAL DEPEND ON THE VALUE OF
          THE "MEMORY" PARAMETER AND THE AMOUNT OF PHYSICAL MEMORY AVAILABLE ON THE MACHINE. PLEASE SEE
          THE "ABAQUS ANALYSIS USER'S MANUAL" FOR MORE DETAILS. THE ACTUAL USAGE OF MEMORY AND OF DISK
          SPACE FOR SCRATCH DATA WILL DEPEND ON THIS UPPER LIMIT AS WELL AS THE MEMORY REQUIRED TO MINIMIZE
          I/O. IF THE MEMORY UPPER LIMIT IS GREATER THAN THE MEMORY REQUIRED TO MINIMIZE I/O, THEN THE ACTUAL
          MEMORY USAGE WILL BE CLOSE TO THE ESTIMATED "MEMORY TO MINIMIZE I/O" VALUE, AND THE SCRATCH DISK
          USAGE WILL BE CLOSE-TO-ZERO; OTHERWISE, THE ACTUAL MEMORY USED WILL BE CLOSE TO THE PREVIOUSLY
          MENTIONED MEMORY LIMIT, AND THE SCRATCH DISK USAGE WILL BE ROUGHLY PROPORTIONAL TO THE DIFFERENCE
          BETWEEN THE ESTIMATED "MEMORY TO MINIMIZE I/O" AND THE MEMORY UPPER LIMIT. HOWEVER ACCURATE
          ESTIMATE OF THE SCRATCH DISK SPACE IS NOT POSSIBLE.
      (6) USING "*RESTART, WRITE" CAN GENERATE A LARGE AMOUNT OF DATA WRITTEN IN THE WORK DIRECTORY.


          THE ANALYSIS HAS BEEN COMPLETED



                              ANALYSIS COMPLETE
                              WITH      2 WARNING MESSAGES ON THE DAT FILE



     JOB TIME SUMMARY
       USER TIME (SEC)      =     9.00E-02
       SYSTEM TIME (SEC)    =     2.00E-02
       TOTAL CPU TIME (SEC) =     0.11    
       WALLCLOCK TIME (SEC) =            0
