 Abaqus/Standard 2024                  DATE 20-Feb-2026 TIME 12:54:51
 SUMMARY OF JOB INFORMATION:
 STEP  INC ATT SEVERE EQUIL TOTAL  TOTAL      STEP       INC OF       DOF    IF
               DISCON ITERS ITERS  TIME/    TIME/LPF    TIME/LPF    MONITOR RIKS
               ITERS               FREQ
   1     1   1     0     2     2  0.00100    0.00100    0.001000  
   1     2   1     0     1     1  0.00200    0.00200    0.001000  
   1     3   1     0     1     1  0.00300    0.00300    0.001000  
   1     4   1     0     1     1  0.00400    0.00400    0.001000  
   1     5   1     0     1     1  0.00500    0.00500    0.001000  
   1     6   1     0     1     1  0.00600    0.00600    0.001000  
   1     7   1     0     1     1  0.00700    0.00700    0.001000  
   1     8   1     0     1     1  0.00800    0.00800    0.001000  
   1     9   1     0     1     1  0.00900    0.00900    0.001000  
   1    10   1     0     1     1  0.0100     0.0100     0.001000  
                          
 THE ANALYSIS HAS COMPLETED SUCCESSFULLY
