*Heading
** Job name: base_mesh Model name: UEL_Model
** Generated by: Abaqus/CAE 2024
*Preprint, echo=NO, model=NO, history=NO, contact=NO
** ----------------------------------------------------------------
** 
** PART INSTANCE: Cube-1
** 
*Node
      1,           2.,           2.,           2.
      2,           2.,   1.79999995,           2.
      3,           2.,   1.60000002,           2.
      4,           2.,   1.39999998,           2.
      5,           2.,   1.20000005,           2.
      6,           2.,           1.,           2.
      7,           2.,  0.800000012,           2.
      8,           2.,  0.600000024,           2.
      9,           2.,  0.400000006,           2.
     10,           2.,  0.200000003,           2.
     11,           2.,           0.,           2.
     12,           2.,           2.,   1.79999995
     13,           2.,   1.79999995,   1.79999995
     14,           2.,   1.60000002,   1.79999995
     15,           2.,   1.39999998,   1.79999995
     16,           2.,   1.20000005,   1.79999995
     17,           2.,           1.,   1.79999995
     18,           2.,  0.800000012,   1.79999995
     19,           2.,  0.600000024,   1.79999995
     20,           2.,  0.400000006,   1.79999995
** ... 1311 like lines cut
*Nset, nset=all_nodes, generate
    1,  1331,     1
*Nset, nset=bottom_nodes
  111,  112,  113,  114,  115,  116,  117,  118,  119,  120,  121,  232,  233,  234,  235,  236
  237,  238,  239,  240,  241,  242,  353,  354,  355,  356,  357,  358,  359,  360,  361,  362
  363,  474,  475,  476,  477,  478,  479,  480,  481,  482,  483,  484,  595,  596,  597,  598
  599,  600,  601,  602,  603,  604,  605,  716,  717,  718,  719,  720,  721,  722,  723,  724
  725,  726,  837,  838,  839,  840,  841,  842,  843,  844,  845,  846,  847,  958,  959,  960
  961,  962,  963,  964,  965,  966,  967,  968, 1079, 1080, 1081, 1082, 1083, 1084, 1085, 1086
 1087, 1088, 1089, 1200, 1201, 1202, 1203, 1204, 1205, 1206, 1207, 1208, 1209, 1210, 1321, 1322
 1323, 1324, 1325, 1326, 1327, 1328, 1329, 1330, 1331
*Nset, nset=top_nodes
    1,    2,    3,    4,    5,    6,    7,    8,    9,   10,   11,  122,  123,  124,  125,  126
  127,  128,  129,  130,  131,  132,  243,  244,  245,  246,  247,  248,  249,  250,  251,  252
  253,  364,  365,  366,  367,  368,  369,  370,  371,  372,  373,  374,  485,  486,  487,  488
  489,  490,  491,  492,  493,  494,  495,  606,  607,  608,  609,  610,  611,  612,  613,  614
  615,  616,  727,  728,  729,  730,  731,  732,  733,  734,  735,  736,  737,  848,  849,  850
  851,  852,  853,  854,  855,  856,  857,  858,  969,  970,  971,  972,  973,  974,  975,  976
  977,  978,  979, 1090, 1091, 1092, 1093, 1094, 1095, 1096, 1097, 1098, 1099, 1100, 1211, 1212
 1213, 1214, 1215, 1216, 1217, 1218, 1219, 1220, 1221
**
** ==============================================================================
** 1. UEL DEFINITION (MAIN MESH)
** ==============================================================================
*User Element, type=U3, Nodes=8, Coordinates=3, Properties=24, Iproperties=2, Variables=848, Unsymm
1, 2, 3, 11
*Element, type=U3, elset=main_mesh
   1,  122,  123,  134,  133,    1,    2,   13,   12
   2,  123,  124,  135,  134,    2,    3,   14,   13
   3,  124,  125,  136,  135,    3,    4,   15,   14
   4,  125,  126,  137,  136,    4,    5,   16,   15
   5,  126,  127,  138,  137,    5,    6,   17,   16
   6,  127,  128,  139,  138,    6,    7,   18,   17
   7,  128,  129,  140,  139,    7,    8,   19,   18
   8,  129,  130,  141,  140,    8,    9,   20,   19
   9,  130,  131,  142,  141,    9,   10,   21,   20
  10,  131,  132,  143,  142,   10,   11,   22,   21
  11,  133,  134,  145,  144,   12,   13,   24,   23
  12,  134,  135,  146,  145,   13,   14,   25,   24
  13,  135,  136,  147,  146,   14,   15,   26,   25
  14,  136,  137,  148,  147,   15,   16,   27,   26
  15,  137,  138,  149,  148,   16,   17,   28,   27
  16,  138,  139,  150,  149,   17,   18,   29,   28
  17,  139,  140,  151,  150,   18,   19,   30,   29
  18,  140,  141,  152,  151,   19,   20,   31,   30
  19,  141,  142,  153,  152,   20,   21,   32,   31
  20,  142,  143,  154,  153,   21,   22,   33,   32
** ... 980 like lines cut
*System
**
** ==============================================================================
** 2. C3D8T DEFINITION (DUMMY MESH FOR VISUALIZATION)
** ==============================================================================
*Element, type=C3D8T, elset=dummy_mesh
100001,  122,  123,  134,  133,    1,    2,   13,   12
100002,  123,  124,  135,  134,    2,    3,   14,   13
100003,  124,  125,  136,  135,    3,    4,   15,   14
100004,  125,  126,  137,  136,    4,    5,   16,   15
100005,  126,  127,  138,  137,    5,    6,   17,   16
100006,  127,  128,  139,  138,    6,    7,   18,   17
100007,  128,  129,  140,  139,    7,    8,   19,   18
100008,  129,  130,  141,  140,    8,    9,   20,   19
100009,  130,  131,  142,  141,    9,   10,   21,   20
100010,  131,  132,  143,  142,   10,   11,   22,   21
100011,  133,  134,  145,  144,   12,   13,   24,   23
100012,  134,  135,  146,  145,   13,   14,   25,   24
100013,  135,  136,  147,  146,   14,   15,   26,   25
100014,  136,  137,  148,  147,   15,   16,   27,   26
100015,  137,  138,  149,  148,   16,   17,   28,   27
100016,  138,  139,  150,  149,   17,   18,   29,   28
100017,  139,  140,  151,  150,   18,   19,   30,   29
100018,  140,  141,  152,  151,   19,   20,   31,   30
100019,  141,  142,  153,  152,   20,   21,   32,   31
100020,  142,  143,  154,  153,   21,   22,   33,   32
** ... 980 like lines cut
**
** ==============================================================================
** 3. NODE SETS & CHEMICAL BOUNDARY
** ==============================================================================
*Nset, nset=all_nodes
1, 2, 3, 4, 5, 6, 7, 8, 9, 10, 11, 12, 13, 14, 15, 16
17, 18, 19, 20, 21, 22, 23, 24, 25, 26, 27, 28, 29, 30, 31, 32
33, 34, 35, 36, 37, 38, 39, 40, 41, 42, 43, 44, 45, 46, 47, 48
49, 50, 51, 52, 53, 54, 55, 56, 57, 58, 59, 60, 61, 62, 63, 64
65, 66, 67, 68, 69, 70, 71, 72, 73, 74, 75, 76, 77, 78, 79, 80
81, 82, 83, 84, 85, 86, 87, 88, 89, 90, 91, 92, 93, 94, 95, 96
97, 98, 99, 100, 101, 102, 103, 104, 105, 106, 107, 108, 109, 110, 111, 112
113, 114, 115, 116, 117, 118, 119, 120, 121, 122, 123, 124, 125, 126, 127, 128
129, 130, 131, 132, 133, 134, 135, 136, 137, 138, 139, 140, 141, 142, 143, 144
145, 146, 147, 148, 149, 150, 151, 152, 153, 154, 155, 156, 157, 158, 159, 160
161, 162, 163, 164, 165, 166, 167, 168, 169, 170, 171, 172, 173, 174, 175, 176
177, 178, 179, 180, 181, 182, 183, 184, 185, 186, 187, 188, 189, 190, 191, 192
193, 194, 195, 196, 197, 198, 199, 200, 201, 202, 203, 204, 205, 206, 207, 208
209, 210, 211, 212, 213, 214, 215, 216, 217, 218, 219, 220, 221, 222, 223, 224
225, 226, 227, 228, 229, 230, 231, 232, 233, 234, 235, 236, 237, 238, 239, 240
241, 242, 243, 244, 245, 246, 247, 248, 249, 250, 251, 252, 253, 254, 255, 256
257, 258, 259, 260, 261, 262, 263, 264, 265, 266, 267, 268, 269, 270, 271, 272
273, 274, 275, 276, 277, 278, 279, 280, 281, 282, 283, 284, 285, 286, 287, 288
289, 290, 291, 292, 293, 294, 295, 296, 297, 298, 299, 300, 301, 302, 303, 304
305, 306, 307, 308, 309, 310, 311, 312, 313, 314, 315, 316, 317, 318, 319, 320
** ... 64 like lines cut
*Nset, nset=bottom_nodes
11, 22, 33, 44, 55, 66, 77, 88, 99, 110, 121, 132, 143, 154, 165, 176
187, 198, 209, 220, 231, 242, 253, 264, 275, 286, 297, 308, 319, 330, 341, 352
363, 374, 385, 396, 407, 418, 429, 440, 451, 462, 473, 484, 495, 506, 517, 528
539, 550, 561, 572, 583, 594, 605, 616, 627, 638, 649, 660, 671, 682, 693, 704
715, 726, 737, 748, 759, 770, 781, 792, 803, 814, 825, 836, 847, 858, 869, 880
891, 902, 913, 924, 935, 946, 957, 968, 979, 990, 1001, 1012, 1023, 1034, 1045, 1056
1067, 1078, 1089, 1100, 1111, 1122, 1133, 1144, 1155, 1166, 1177, 1188, 1199, 1210, 1221, 1232
1243, 1254, 1265, 1276, 1287, 1298, 1309, 1320, 1331
*Nset, nset=xmax_nodes
1, 2, 3, 4, 5, 6, 7, 8, 9, 10, 11, 12, 13, 14, 15, 16
17, 18, 19, 20, 21, 22, 23, 24, 25, 26, 27, 28, 29, 30, 31, 32
33, 34, 35, 36, 37, 38, 39, 40, 41, 42, 43, 44, 45, 46, 47, 48
49, 50, 51, 52, 53, 54, 55, 56, 57, 58, 59, 60, 61, 62, 63, 64
65, 66, 67, 68, 69, 70, 71, 72, 73, 74, 75, 76, 77, 78, 79, 80
81, 82, 83, 84, 85, 86, 87, 88, 89, 90, 91, 92, 93, 94, 95, 96
97, 98, 99, 100, 101, 102, 103, 104, 105, 106, 107, 108, 109, 110, 111, 112
113, 114, 115, 116, 117, 118, 119, 120, 121
*Nset, nset=zmax_nodes
1, 2, 3, 4, 5, 6, 7, 8, 9, 10, 11, 122, 123, 124, 125, 126
127, 128, 129, 130, 131, 132, 243, 244, 245, 246, 247, 248, 249, 250, 251, 252
253, 364, 365, 366, 367, 368, 369, 370, 371, 372, 373, 374, 485, 486, 487, 488
489, 490, 491, 492, 493, 494, 495, 606, 607, 608, 609, 610, 611, 612, 613, 614
615, 616, 727, 728, 729, 730, 731, 732, 733, 734, 735, 736, 737, 848, 849, 850
851, 852, 853, 854, 855, 856, 857, 858, 969, 970, 971, 972, 973, 974, 975, 976
977, 978, 979, 1090, 1091, 1092, 1093, 1094, 1095, 1096, 1097, 1098, 1099, 1100, 1211, 1212
1213, 1214, 1215, 1216, 1217, 1218, 1219, 1220, 1221
*Nset, nset=x0_nodes
1211, 1212, 1213, 1214, 1215, 1216, 1217, 1218, 1219, 1220, 1221, 1222, 1223, 1224, 1225, 1226
1227, 1228, 1229, 1230, 1231, 1232, 1233, 1234, 1235, 1236, 1237, 1238, 1239, 1240, 1241, 1242
1243, 1244, 1245, 1246, 1247, 1248, 1249, 1250, 1251, 1252, 1253, 1254, 1255, 1256, 1257, 1258
1259, 1260, 1261, 1262, 1263, 1264, 1265, 1266, 1267, 1268, 1269, 1270, 1271, 1272, 1273, 1274
1275, 1276, 1277, 1278, 1279, 1280, 1281, 1282, 1283, 1284, 1285, 1286, 1287, 1288, 1289, 1290
1291, 1292, 1293, 1294, 1295, 1296, 1297, 1298, 1299, 1300, 1301, 1302, 1303, 1304, 1305, 1306
1307, 1308, 1309, 1310, 1311, 1312, 1313, 1314, 1315, 1316, 1317, 1318, 1319, 1320, 1321, 1322
1323, 1324, 1325, 1326, 1327, 1328, 1329, 1330, 1331
*Nset, nset=z0_nodes
111, 112, 113, 114, 115, 116, 117, 118, 119, 120, 121, 232, 233, 234, 235, 236
237, 238, 239, 240, 241, 242, 353, 354, 355, 356, 357, 358, 359, 360, 361, 362
363, 474, 475, 476, 477, 478, 479, 480, 481, 482, 483, 484, 595, 596, 597, 598
599, 600, 601, 602, 603, 604, 605, 716, 717, 718, 719, 720, 721, 722, 723, 724
725, 726, 837, 838, 839, 840, 841, 842, 843, 844, 845, 846, 847, 958, 959, 960
961, 962, 963, 964, 965, 966, 967, 968, 1079, 1080, 1081, 1082, 1083, 1084, 1085, 1086
1087, 1088, 1089, 1200, 1201, 1202, 1203, 1204, 1205, 1206, 1207, 1208, 1209, 1210, 1321, 1322
1323, 1324, 1325, 1326, 1327, 1328, 1329, 1330, 1331
**
** ==============================================================================
** 4. RIGID INDENTER AND CONTACT
** ==============================================================================
*Node, nset=IndenterRef
100000, 2.0, 2.75, 2.0
*Surface, type=REVOLUTION, name=SURFACE-Probe
********
2.0, 2.75, 2.0,   2.0, 3.75, 2.0
START,          0.5,           0.
 CIRCL,           0.,         -0.5,           0.,           0.
*Rigid Body, ref node=100000, analytical surface=SURFACE-Probe
**
*Surface, type=ELEMENT, name=SURFACE-Top
100001, S6
100011, S6
100021, S6
100031, S6
100041, S6
100051, S6
100061, S6
100071, S6
100081, S6
100091, S6
100101, S6
100111, S6
100121, S6
100131, S6
100141, S6
100151, S6
100161, S6
100171, S6
100181, S6
100191, S6
** ... 80 like lines cut
**
*Surface Interaction, name=INTPROP-Frictionless
1.,
*Friction
0.,
*Surface Behavior, augmented Lagrange
*Contact Pair, interaction=INTPROP-Frictionless, type=SURFACE TO SURFACE
SURFACE-Top, SURFACE-Probe
**
** ==============================================================================
** 5. PROPERTIES AND SIMULATION STEPS
** ==============================================================================
*include, input=properties.inp
*INCLUDE, file=sec_uel_cube.inp
**
*Solid section, elset=dummy_mesh, material=dummy_material
*Hourglass stiffness
250.0
**
*Material, name=dummy_material
*User output variables
108
*elastic
1.e-20
*Conductivity
1.0
*Density
1.0
*Specific heat
1.0
**
** ==============================================================================
** 6. INITIAL CONDITIONS
** ==============================================================================
*Initial conditions, type=temperature
all_nodes, <INITMU>
**
*Step, name=Indentation, nlgeom=YES, inc=10000
*Coupled Temperature-displacement, creep=none, deltmx=10.0
0.001, 1.0, 1e-15, 0.05
*Boundary
** Fix the bottom of the gel
bottom_nodes, YSYMM
** Apply Quarter Symmetry boundary conditions for vertex indentation
xmax_nodes, XSYMM
zmax_nodes, ZSYMM
** Indenter Constraints
IndenterRef, 1, 1
IndenterRef, 3, 3
IndenterRef, 4, 4
IndenterRef, 5, 5
IndenterRef, 6, 6
IndenterRef, 2, 2, -0.5
*Output, field, time marks=no
*Node Output, nset=all_nodes
U, NT, RF
*Node Output, nset=IndenterRef
U, RF
*Element Output, elset=dummy_mesh
UVARM, LE
*End Step
**
*Step, name=Hold, nlgeom=YES, inc=10000
*Coupled Temperature-displacement, creep=none, deltmx=10.0
0.0001, 10.0, 1e-15, 0.5
*Boundary
IndenterRef, 2, 2, -0.5
*Output, field, time marks=no
*Node Output, nset=all_nodes
U, NT, RF
*Node Output, nset=IndenterRef
U, RF
*Element Output, elset=dummy_mesh
UVARM, LE
*End Step
**
*Step, name=Withdraw, nlgeom=YES, inc=10000
*Coupled Temperature-displacement, creep=none, deltmx=10.0
0.0001, 1.0, 1e-15, 0.1
*Boundary
IndenterRef, 2, 2, 0.0
*Output, field, time marks=no
*Node Output, nset=all_nodes
U, NT, RF
*Node Output, nset=IndenterRef
U, RF
*Element Output, elset=dummy_mesh
UVARM, LE
*End Step
**
*Step, name=Relax, nlgeom=YES, inc=10000
*Coupled Temperature-displacement, creep=none, deltmx=10.0
0.0001, 10.0, 1e-15, 0.5
*Boundary
IndenterRef, 2, 2, 0.0
*Output, field, time marks=no
*Node Output, nset=all_nodes
U, NT, RF
*Node Output, nset=IndenterRef
U, RF
*Element Output, elset=dummy_mesh
UVARM, LE
*End Step
**
