1

   Abaqus 2024                                  Date 21-Feb-2026   Time 02:02:07
   For use by Supplied by Team-SolidSQUAD under license from Dassault Systemes or its subsidiary.

 Sample UEL usage                                                                
                                                                                 
 STEP    1     INCREMENT     1     STEP TIME    0.00    


                        S T E P       1     S T A T I C   A N A L Y S I S


                                                                                          

     AUTOMATIC TIME CONTROL WITH -
          A SUGGESTED INITIAL TIME INCREMENT OF                1.000E-03
          AND A TOTAL TIME PERIOD OF                           1.000E-02
          THE MINIMUM TIME INCREMENT ALLOWED IS                1.000E-05
          THE MAXIMUM TIME INCREMENT ALLOWED IS                1.000E-03

     LINEAR EQUATION SOLVER TYPE         DIRECT SPARSE

 CONVERGENCE TOLERANCE PARAMETERS FOR FORCE    
     CRITERION FOR RESIDUAL FORCE     FOR A NONLINEAR PROBLEM          5.000E-03
     CRITERION FOR DISP.    CORRECTION IN A NONLINEAR PROBLEM          1.000E-02
     INITIAL VALUE OF TIME AVERAGE FORCE                               1.000E-02
     AVERAGE FORCE     IS TIME AVERAGE FORCE    
     ALTERNATE CRIT. FOR RESIDUAL FORCE     FOR A NONLINEAR PROBLEM    2.000E-02
     CRITERION FOR ZERO FORCE     RELATIVE TO TIME AVRG. FORCE         1.000E-05
     CRITERION FOR RESIDUAL FORCE     WHEN THERE IS ZERO FLUX          1.000E-05
     CRITERION FOR DISP.    CORRECTION WHEN THERE IS ZERO FLUX         1.000E-03
     CRITERION FOR RESIDUAL FORCE     FOR A LINEAR INCREMENT           1.000E-08
     FIELD CONVERSION RATIO                                             1.00    
     CRITERION FOR ZERO FORCE     REL. TO TIME AVRG. MAX. FORCE        1.000E-05
     CRITERION FOR ZERO DISP.    RELATIVE TO CHARACTERISTIC LENGTH     1.000E-08

     VOLUMETRIC STRAIN COMPATIBILITY TOLERANCE FOR HYBRID SOLIDS       1.000E-05
     AXIAL STRAIN COMPATIBILITY TOLERANCE FOR HYBRID BEAMS             1.000E-05
     TRANS. SHEAR STRAIN COMPATIBILITY TOLERANCE FOR HYBRID BEAMS      1.000E-05
     SOFT CONTACT CONSTRAINT COMPATIBILITY TOLERANCE FOR P>P0          5.000E-03
     SOFT CONTACT CONSTRAINT COMPATIBILITY TOLERANCE FOR P=0.0         0.100    
     CONTACT FORCE ERROR TOLERANCE FOR CONVERT SDI=YES                 1.00    
     DISPLACEMENT COMPATIBILITY TOLERANCE FOR DCOUP ELEMENTS           1.000E-05
     ROTATION COMPATIBILITY TOLERANCE FOR DCOUP ELEMENTS               1.000E-05

 EQUILIBRIUM WILL BE CHECKED FOR SEVERE DISCONTINUITY ITERATIONS

 TIME INCREMENTATION CONTROL PARAMETERS:
     FIRST EQUILIBRIUM ITERATION FOR CONSECUTIVE DIVERGENCE CHECK              4
     EQUILIBRIUM ITERATION AT WHICH LOG. CONVERGENCE RATE CHECK BEGINS         8
     EQUILIBRIUM ITERATION AFTER WHICH ALTERNATE RESIDUAL IS USED              9
     MAXIMUM EQUILIBRIUM ITERATIONS ALLOWED                                   16
     EQUILIBRIUM ITERATION COUNT FOR CUT-BACK IN NEXT INCREMENT               10
     MAXIMUM EQUILIB. ITERS IN TWO INCREMENTS FOR TIME INCREMENT INCREASE      4
     MAXIMUM ITERATIONS FOR SEVERE DISCONTINUITIES                            50
     MAXIMUM ATTEMPTS ALLOWED IN AN INCREMENT                                  5
     MAXIMUM DISCON. ITERS IN TWO INCREMENTS FOR TIME INCREMENT INCREASE      50
     MAXIMUM CONTACT AUGMENTATIONS FOR *SURFACE BEHAVIOR,AUGMENTED LAGRANGE   50
     CUT-BACK FACTOR AFTER DIVERGENCE                                 0.2500    
     CUT-BACK FACTOR FOR TOO SLOW CONVERGENCE                         0.5000    
     CUT-BACK FACTOR AFTER TOO MANY EQUILIBRIUM ITERATIONS            0.7500    
     CUT-BACK FACTOR AFTER TOO MANY SEVERE DISCONTINUITY ITERATIONS   0.2500    
     CUT-BACK FACTOR AFTER PROBLEMS IN ELEMENT ASSEMBLY               0.2500    
     INCREASE FACTOR AFTER TWO INCREMENTS THAT CONVERGE QUICKLY        1.500    
     MAX. TIME INCREMENT INCREASE FACTOR ALLOWED                       1.500    
     MAX. TIME INCREMENT INCREASE FACTOR ALLOWED (DYNAMICS)            1.250    
     MAX. TIME INCREMENT INCREASE FACTOR ALLOWED (DIFFUSION)           2.000    
     MINIMUM TIME INCREMENT RATIO FOR EXTRAPOLATION TO OCCUR          0.1000    
     MAX. RATIO OF TIME INCREMENT TO STABILITY LIMIT                   1.000    
     FRACTION OF STABILITY LIMIT FOR NEW TIME INCREMENT               0.9500    
     TIME INCREMENT INCREASE FACTOR BEFORE A TIME POINT                1.000    
     GLOBAL STABILIZATION CONTROL IS NOT USED

          PRINT OF INCREMENT NUMBER, TIME, ETC., EVERY    1  INCREMENTS

     THE MAXIMUM NUMBER OF INCREMENTS IN THIS STEP IS                   10000

          LARGE DISPLACEMENT THEORY WILL BE USED

          UNSYMMETRIC MATRIX STORAGE AND SOLUTION WILL BE USED

     LINEAR EXTRAPOLATION WILL BE USED

     CHARACTERISTIC ELEMENT LENGTH      1.00    

     DETAILS REGARDING ACTUAL SOLUTION WAVEFRONT REQUESTED

     DETAILED OUTPUT OF DIAGNOSTICS TO DATABASE REQUESTED

     PRINT OF INCREMENT NUMBER, TIME, ETC., TO THE MESSAGE FILE EVERY     1  INCREMENTS

     COLLECTING MODEL CONSTRAINT INFORMATION FOR OVERCONSTRAINT CHECKS

     COLLECTING STEP CONSTRAINT INFORMATION FOR OVERCONSTRAINT CHECKS


  INCREMENT     1 STARTS. ATTEMPT NUMBER  1, TIME INCREMENT  1.000E-03
 
	UNSYMMETRIC NEW DIRECT SPARSE SOLVER RUNNING ON
 	1 HOST x 1 MPI RANK PER HOST x 1 THREAD PER RANK
        NUMBER OF EQUATIONS:  24
        NUMBER OF RHS:        1
        NUMBER OF FLOPS:      9.248e+03
        SOLVER ELAPSED TIME:  11ms

               CONVERGENCE CHECKS FOR EQUILIBRIUM ITERATION     1


 AVERAGE FORCE                      0.254       TIME AVG. FORCE       0.254    
 LARGEST SCALED RESIDUAL FORCE     -0.668       AT NODE          3   DOF  3
  CORRESPONDING RESIDUAL FORCE     -0.668    
 LARGEST INCREMENT OF DISP.         5.979E-02   AT NODE          3   DOF  3
 LARGEST CORRECTION TO DISP.        5.979E-02   AT NODE          3   DOF  3
          FORCE     EQUILIBRIUM NOT ACHIEVED WITHIN TOLERANCE.
 
	UNSYMMETRIC NEW DIRECT SPARSE SOLVER RUNNING ON
 	1 HOST x 1 MPI RANK PER HOST x 1 THREAD PER RANK
        NUMBER OF EQUATIONS:  24
        NUMBER OF RHS:        1
        NUMBER OF FLOPS:      9.248e+03
        SOLVER ELAPSED TIME:  1ms

               CONVERGENCE CHECKS FOR EQUILIBRIUM ITERATION     2


 AVERAGE FORCE                      5.877E-02   TIME AVG. FORCE       5.877E-02
 LARGEST SCALED RESIDUAL FORCE      9.345E-04   AT NODE          3   DOF  3
  CORRESPONDING RESIDUAL FORCE      9.345E-04
 LARGEST INCREMENT OF DISP.         5.701E-02   AT NODE          8   DOF  3
 LARGEST CORRECTION TO DISP.       -2.906E-03   AT NODE          3   DOF  3
          FORCE     EQUILIBRIUM NOT ACHIEVED WITHIN TOLERANCE.
 
	UNSYMMETRIC NEW DIRECT SPARSE SOLVER RUNNING ON
 	1 HOST x 1 MPI RANK PER HOST x 1 THREAD PER RANK
        NUMBER OF EQUATIONS:  24
        NUMBER OF RHS:        1
        NUMBER OF FLOPS:      9.248e+03
        SOLVER ELAPSED TIME:  1ms

               CONVERGENCE CHECKS FOR EQUILIBRIUM ITERATION     3


 AVERAGE FORCE                      5.840E-02   TIME AVG. FORCE       5.840E-02
 LARGEST SCALED RESIDUAL FORCE      7.825E-06   AT NODE          8   DOF  3
  CORRESPONDING RESIDUAL FORCE      7.825E-06
 LARGEST INCREMENT OF DISP.         5.695E-02   AT NODE          3   DOF  3
 LARGEST CORRECTION TO DISP.        7.210E-05   AT NODE          3   DOF  3
          THE FORCE     EQUILIBRIUM EQUATIONS HAVE CONVERGED

 ITERATION SUMMARY FOR THE INCREMENT:   3 TOTAL ITERATIONS, OF WHICH
   0 ARE SEVERE DISCONTINUITY ITERATIONS AND  3 ARE EQUILIBRIUM ITERATIONS.

 TIME INCREMENT COMPLETED  1.000E-03,  FRACTION OF STEP COMPLETED  0.100    
 STEP TIME COMPLETED       1.000E-03,  TOTAL TIME COMPLETED        1.000E-03


  INCREMENT     2 STARTS. ATTEMPT NUMBER  1, TIME INCREMENT  1.000E-03
 
	UNSYMMETRIC NEW DIRECT SPARSE SOLVER RUNNING ON
 	1 HOST x 1 MPI RANK PER HOST x 1 THREAD PER RANK
        NUMBER OF EQUATIONS:  24
        NUMBER OF RHS:        1
        NUMBER OF FLOPS:      9.248e+03
        SOLVER ELAPSED TIME:  1ms

               CONVERGENCE CHECKS FOR EQUILIBRIUM ITERATION     1


 AVERAGE FORCE                      0.275       TIME AVG. FORCE       0.167    
 LARGEST SCALED RESIDUAL FORCE      4.106E-03   AT NODE          3   DOF  3
  CORRESPONDING RESIDUAL FORCE      4.106E-03
 LARGEST INCREMENT OF DISP.         5.202E-02   AT NODE          8   DOF  3
 LARGEST CORRECTION TO DISP.       -4.944E-03   AT NODE          3   DOF  3
          FORCE     EQUILIBRIUM NOT ACHIEVED WITHIN TOLERANCE.
 
	UNSYMMETRIC NEW DIRECT SPARSE SOLVER RUNNING ON
 	1 HOST x 1 MPI RANK PER HOST x 1 THREAD PER RANK
        NUMBER OF EQUATIONS:  24
        NUMBER OF RHS:        1
        NUMBER OF FLOPS:      9.248e+03
        SOLVER ELAPSED TIME:  1ms

               CONVERGENCE CHECKS FOR EQUILIBRIUM ITERATION     2


 AVERAGE FORCE                      0.407       TIME AVG. FORCE       0.233    
 LARGEST SCALED RESIDUAL FORCE      6.206E-07   AT NODE          8   DOF  3
  CORRESPONDING RESIDUAL FORCE      6.206E-07
 LARGEST INCREMENT OF DISP.         5.203E-02   AT NODE          8   DOF  3
 LARGEST CORRECTION TO DISP.        1.519E-05   AT NODE          3   DOF  3
          THE FORCE     EQUILIBRIUM EQUATIONS HAVE CONVERGED

 ITERATION SUMMARY FOR THE INCREMENT:   2 TOTAL ITERATIONS, OF WHICH
   0 ARE SEVERE DISCONTINUITY ITERATIONS AND  2 ARE EQUILIBRIUM ITERATIONS.

 TIME INCREMENT COMPLETED  1.000E-03,  FRACTION OF STEP COMPLETED  0.200    
 STEP TIME COMPLETED       2.000E-03,  TOTAL TIME COMPLETED        2.000E-03


  INCREMENT     3 STARTS. ATTEMPT NUMBER  1, TIME INCREMENT  1.000E-03
 
	UNSYMMETRIC NEW DIRECT SPARSE SOLVER RUNNING ON
 	1 HOST x 1 MPI RANK PER HOST x 1 THREAD PER RANK
        NUMBER OF EQUATIONS:  24
        NUMBER OF RHS:        1
        NUMBER OF FLOPS:      9.248e+03
        SOLVER ELAPSED TIME:  1ms

               CONVERGENCE CHECKS FOR EQUILIBRIUM ITERATION     1


 AVERAGE FORCE                      0.479       TIME AVG. FORCE       0.315    
 LARGEST SCALED RESIDUAL FORCE      3.839E-03   AT NODE          8   DOF  3
  CORRESPONDING RESIDUAL FORCE      3.839E-03
 LARGEST INCREMENT OF DISP.         4.759E-02   AT NODE          3   DOF  3
 LARGEST CORRECTION TO DISP.       -4.448E-03   AT NODE          8   DOF  3
          FORCE     EQUILIBRIUM NOT ACHIEVED WITHIN TOLERANCE.
 
	UNSYMMETRIC NEW DIRECT SPARSE SOLVER RUNNING ON
 	1 HOST x 1 MPI RANK PER HOST x 1 THREAD PER RANK
        NUMBER OF EQUATIONS:  24
        NUMBER OF RHS:        1
        NUMBER OF FLOPS:      9.248e+03
        SOLVER ELAPSED TIME:  1ms

               CONVERGENCE CHECKS FOR EQUILIBRIUM ITERATION     2


 AVERAGE FORCE                      0.714       TIME AVG. FORCE       0.393    
 LARGEST SCALED RESIDUAL FORCE      4.726E-07   AT NODE          3   DOF  3
  CORRESPONDING RESIDUAL FORCE      4.726E-07
 LARGEST INCREMENT OF DISP.         4.760E-02   AT NODE          8   DOF  3
 LARGEST CORRECTION TO DISP.        1.176E-05   AT NODE          8   DOF  3
          THE FORCE     EQUILIBRIUM EQUATIONS HAVE CONVERGED

 ITERATION SUMMARY FOR THE INCREMENT:   2 TOTAL ITERATIONS, OF WHICH
   0 ARE SEVERE DISCONTINUITY ITERATIONS AND  2 ARE EQUILIBRIUM ITERATIONS.

 TIME INCREMENT COMPLETED  1.000E-03,  FRACTION OF STEP COMPLETED  0.300    
 STEP TIME COMPLETED       3.000E-03,  TOTAL TIME COMPLETED        3.000E-03


  INCREMENT     4 STARTS. ATTEMPT NUMBER  1, TIME INCREMENT  1.000E-03
 
	UNSYMMETRIC NEW DIRECT SPARSE SOLVER RUNNING ON
 	1 HOST x 1 MPI RANK PER HOST x 1 THREAD PER RANK
        NUMBER OF EQUATIONS:  24
        NUMBER OF RHS:        1
        NUMBER OF FLOPS:      9.248e+03
        SOLVER ELAPSED TIME:  1ms

               CONVERGENCE CHECKS FOR EQUILIBRIUM ITERATION     1


 AVERAGE FORCE                      0.749       TIME AVG. FORCE       0.482    
 LARGEST SCALED RESIDUAL FORCE      3.584E-03   AT NODE          8   DOF  3
  CORRESPONDING RESIDUAL FORCE      3.584E-03
 LARGEST INCREMENT OF DISP.         4.356E-02   AT NODE          3   DOF  3
 LARGEST CORRECTION TO DISP.       -4.037E-03   AT NODE          8   DOF  3
          FORCE     EQUILIBRIUM NOT ACHIEVED WITHIN TOLERANCE.
 
	UNSYMMETRIC NEW DIRECT SPARSE SOLVER RUNNING ON
 	1 HOST x 1 MPI RANK PER HOST x 1 THREAD PER RANK
        NUMBER OF EQUATIONS:  24
        NUMBER OF RHS:        1
        NUMBER OF FLOPS:      9.248e+03
        SOLVER ELAPSED TIME:  1ms

               CONVERGENCE CHECKS FOR EQUILIBRIUM ITERATION     2


 AVERAGE FORCE                       1.12       TIME AVG. FORCE       0.575    
 LARGEST SCALED RESIDUAL FORCE      1.112E-07   AT NODE          3   DOF  3
  CORRESPONDING RESIDUAL FORCE      1.112E-07
 LARGEST INCREMENT OF DISP.         4.357E-02   AT NODE          3   DOF  3
 LARGEST CORRECTION TO DISP.        9.078E-06   AT NODE          8   DOF  3
          THE FORCE     EQUILIBRIUM EQUATIONS HAVE CONVERGED

 ITERATION SUMMARY FOR THE INCREMENT:   2 TOTAL ITERATIONS, OF WHICH
   0 ARE SEVERE DISCONTINUITY ITERATIONS AND  2 ARE EQUILIBRIUM ITERATIONS.

 TIME INCREMENT COMPLETED  1.000E-03,  FRACTION OF STEP COMPLETED  0.400    
 STEP TIME COMPLETED       4.000E-03,  TOTAL TIME COMPLETED        4.000E-03


  INCREMENT     5 STARTS. ATTEMPT NUMBER  1, TIME INCREMENT  1.000E-03
 
	UNSYMMETRIC NEW DIRECT SPARSE SOLVER RUNNING ON
 	1 HOST x 1 MPI RANK PER HOST x 1 THREAD PER RANK
        NUMBER OF EQUATIONS:  24
        NUMBER OF RHS:        1
        NUMBER OF FLOPS:      9.248e+03
        SOLVER ELAPSED TIME:  1ms

               CONVERGENCE CHECKS FOR EQUILIBRIUM ITERATION     1


 AVERAGE FORCE                       1.11       TIME AVG. FORCE       0.682    
 LARGEST SCALED RESIDUAL FORCE      3.323E-03   AT NODE          3   DOF  3
  CORRESPONDING RESIDUAL FORCE      3.323E-03
 LARGEST INCREMENT OF DISP.         3.986E-02   AT NODE          3   DOF  3
 LARGEST CORRECTION TO DISP.       -3.711E-03   AT NODE          3   DOF  3
 ESTIMATE OF DISP.    CORRECTION    7.395E-06
 FORCE     EQUILIB. ACCEPTED BASED ON SMALL RESIDUAL AND ESTIMATED CORRECTION

 ITERATION SUMMARY FOR THE INCREMENT:   1 TOTAL ITERATIONS, OF WHICH
   0 ARE SEVERE DISCONTINUITY ITERATIONS AND  1 ARE EQUILIBRIUM ITERATIONS.

 TIME INCREMENT COMPLETED  1.000E-03,  FRACTION OF STEP COMPLETED  0.500    
 STEP TIME COMPLETED       5.000E-03,  TOTAL TIME COMPLETED        5.000E-03


  INCREMENT     6 STARTS. ATTEMPT NUMBER  1, TIME INCREMENT  1.000E-03
 
	UNSYMMETRIC NEW DIRECT SPARSE SOLVER RUNNING ON
 	1 HOST x 1 MPI RANK PER HOST x 1 THREAD PER RANK
        NUMBER OF EQUATIONS:  24
        NUMBER OF RHS:        1
        NUMBER OF FLOPS:      9.248e+03
        SOLVER ELAPSED TIME:  1ms

               CONVERGENCE CHECKS FOR EQUILIBRIUM ITERATION     1


 AVERAGE FORCE                       1.60       TIME AVG. FORCE       0.836    
 LARGEST SCALED RESIDUAL FORCE      2.968E-03   AT NODE          8   DOF  3
  CORRESPONDING RESIDUAL FORCE      2.968E-03
 LARGEST INCREMENT OF DISP.         3.640E-02   AT NODE          3   DOF  3
 LARGEST CORRECTION TO DISP.       -3.460E-03   AT NODE          8   DOF  3
 ESTIMATE OF DISP.    CORRECTION    5.886E-06
 FORCE     EQUILIB. ACCEPTED BASED ON SMALL RESIDUAL AND ESTIMATED CORRECTION

 ITERATION SUMMARY FOR THE INCREMENT:   1 TOTAL ITERATIONS, OF WHICH
   0 ARE SEVERE DISCONTINUITY ITERATIONS AND  1 ARE EQUILIBRIUM ITERATIONS.

 TIME INCREMENT COMPLETED  1.000E-03,  FRACTION OF STEP COMPLETED  0.600    
 STEP TIME COMPLETED       6.000E-03,  TOTAL TIME COMPLETED        6.000E-03


  INCREMENT     7 STARTS. ATTEMPT NUMBER  1, TIME INCREMENT  1.000E-03
 
	UNSYMMETRIC NEW DIRECT SPARSE SOLVER RUNNING ON
 	1 HOST x 1 MPI RANK PER HOST x 1 THREAD PER RANK
        NUMBER OF EQUATIONS:  24
        NUMBER OF RHS:        1
        NUMBER OF FLOPS:      9.248e+03
        SOLVER ELAPSED TIME:  1ms

               CONVERGENCE CHECKS FOR EQUILIBRIUM ITERATION     1


 AVERAGE FORCE                       2.29       TIME AVG. FORCE        1.04    
 LARGEST SCALED RESIDUAL FORCE      2.490E-03   AT NODE          7   DOF  3
  CORRESPONDING RESIDUAL FORCE      2.490E-03
 LARGEST INCREMENT OF DISP.         3.306E-02   AT NODE          3   DOF  3
 LARGEST CORRECTION TO DISP.       -3.336E-03   AT NODE          7   DOF  3
 ESTIMATE OF DISP.    CORRECTION    4.380E-06
 FORCE     EQUILIB. ACCEPTED BASED ON SMALL RESIDUAL AND ESTIMATED CORRECTION

 ITERATION SUMMARY FOR THE INCREMENT:   1 TOTAL ITERATIONS, OF WHICH
   0 ARE SEVERE DISCONTINUITY ITERATIONS AND  1 ARE EQUILIBRIUM ITERATIONS.

 TIME INCREMENT COMPLETED  1.000E-03,  FRACTION OF STEP COMPLETED  0.700    
 STEP TIME COMPLETED       7.000E-03,  TOTAL TIME COMPLETED        7.000E-03


  INCREMENT     8 STARTS. ATTEMPT NUMBER  1, TIME INCREMENT  1.000E-03
 
	UNSYMMETRIC NEW DIRECT SPARSE SOLVER RUNNING ON
 	1 HOST x 1 MPI RANK PER HOST x 1 THREAD PER RANK
        NUMBER OF EQUATIONS:  24
        NUMBER OF RHS:        1
        NUMBER OF FLOPS:      9.248e+03
        SOLVER ELAPSED TIME:  1ms
 

 ***NOTE: USER SUBROUTINE REQUESTS A TIME INCREMENT CHANGE.


  INCREMENT     8 STARTS. ATTEMPT NUMBER  2, TIME INCREMENT  7.500E-04
 
	UNSYMMETRIC NEW DIRECT SPARSE SOLVER RUNNING ON
 	1 HOST x 1 MPI RANK PER HOST x 1 THREAD PER RANK
        NUMBER OF EQUATIONS:  24
        NUMBER OF RHS:        1
        NUMBER OF FLOPS:      9.248e+03
        SOLVER ELAPSED TIME:  1ms

               CONVERGENCE CHECKS FOR EQUILIBRIUM ITERATION     1


 AVERAGE FORCE                       2.99       TIME AVG. FORCE        1.29    
 LARGEST SCALED RESIDUAL FORCE      7.539E-04   AT NODE          8   DOF  3
  CORRESPONDING RESIDUAL FORCE      7.539E-04
 LARGEST INCREMENT OF DISP.         2.262E-02   AT NODE          3   DOF  3
 LARGEST CORRECTION TO DISP.       -2.180E-03   AT NODE          8   DOF  3
 ESTIMATE OF DISP.    CORRECTION    1.207E-06
 FORCE     EQUILIB. ACCEPTED BASED ON SMALL RESIDUAL AND ESTIMATED CORRECTION
          TIME INCREMENT MAY NOW INCREASE TO    9.375E-04

 ITERATION SUMMARY FOR THE INCREMENT:   1 TOTAL ITERATIONS, OF WHICH
   0 ARE SEVERE DISCONTINUITY ITERATIONS AND  1 ARE EQUILIBRIUM ITERATIONS.

 TIME INCREMENT COMPLETED  7.500E-04,  FRACTION OF STEP COMPLETED  0.775    
 STEP TIME COMPLETED       7.750E-03,  TOTAL TIME COMPLETED        7.750E-03


  INCREMENT     9 STARTS. ATTEMPT NUMBER  1, TIME INCREMENT  9.375E-04
 
	UNSYMMETRIC NEW DIRECT SPARSE SOLVER RUNNING ON
 	1 HOST x 1 MPI RANK PER HOST x 1 THREAD PER RANK
        NUMBER OF EQUATIONS:  24
        NUMBER OF RHS:        1
        NUMBER OF FLOPS:      9.248e+03
        SOLVER ELAPSED TIME:  1ms
 

 ***NOTE: USER SUBROUTINE REQUESTS A TIME INCREMENT CHANGE.


  INCREMENT     9 STARTS. ATTEMPT NUMBER  2, TIME INCREMENT  4.687E-04
 
	UNSYMMETRIC NEW DIRECT SPARSE SOLVER RUNNING ON
 	1 HOST x 1 MPI RANK PER HOST x 1 THREAD PER RANK
        NUMBER OF EQUATIONS:  24
        NUMBER OF RHS:        1
        NUMBER OF FLOPS:      9.248e+03
        SOLVER ELAPSED TIME:  1ms

               CONVERGENCE CHECKS FOR EQUILIBRIUM ITERATION     1


 AVERAGE FORCE                       3.53       TIME AVG. FORCE        1.54    
 LARGEST SCALED RESIDUAL FORCE      7.884E-05   AT NODE          7   DOF  3
  CORRESPONDING RESIDUAL FORCE      7.884E-05
 LARGEST INCREMENT OF DISP.         1.406E-02   AT NODE          1   DOF  1
 LARGEST CORRECTION TO DISP.       -9.783E-04   AT NODE          7   DOF  3
 ESTIMATE OF DISP.    CORRECTION    1.187E-07
 FORCE     EQUILIB. ACCEPTED BASED ON SMALL RESIDUAL AND ESTIMATED CORRECTION
          TIME INCREMENT MAY NOW INCREASE TO    5.859E-04

 ITERATION SUMMARY FOR THE INCREMENT:   1 TOTAL ITERATIONS, OF WHICH
   0 ARE SEVERE DISCONTINUITY ITERATIONS AND  1 ARE EQUILIBRIUM ITERATIONS.

 TIME INCREMENT COMPLETED  4.687E-04,  FRACTION OF STEP COMPLETED  0.822    
 STEP TIME COMPLETED       8.219E-03,  TOTAL TIME COMPLETED        8.219E-03


  INCREMENT    10 STARTS. ATTEMPT NUMBER  1, TIME INCREMENT  5.859E-04
 
	UNSYMMETRIC NEW DIRECT SPARSE SOLVER RUNNING ON
 	1 HOST x 1 MPI RANK PER HOST x 1 THREAD PER RANK
        NUMBER OF EQUATIONS:  24
        NUMBER OF RHS:        1
        NUMBER OF FLOPS:      9.248e+03
        SOLVER ELAPSED TIME:  1ms
 

 ***NOTE: USER SUBROUTINE REQUESTS A TIME INCREMENT CHANGE.


  INCREMENT    10 STARTS. ATTEMPT NUMBER  2, TIME INCREMENT  4.395E-04
 
	UNSYMMETRIC NEW DIRECT SPARSE SOLVER RUNNING ON
 	1 HOST x 1 MPI RANK PER HOST x 1 THREAD PER RANK
        NUMBER OF EQUATIONS:  24
        NUMBER OF RHS:        1
        NUMBER OF FLOPS:      9.248e+03
        SOLVER ELAPSED TIME:  1ms

               CONVERGENCE CHECKS FOR EQUILIBRIUM ITERATION     1


 AVERAGE FORCE                       5.23       TIME AVG. FORCE        1.91    
 LARGEST SCALED RESIDUAL FORCE     -1.726E-05   AT NODE          3   DOF  3
  CORRESPONDING RESIDUAL FORCE     -1.726E-05
 LARGEST INCREMENT OF DISP.         1.318E-02   AT NODE          1   DOF  1
 LARGEST CORRECTION TO DISP.       -7.137E-04   AT NODE          4   DOF  3
 ESTIMATE OF DISP.    CORRECTION   -2.440E-08
 FORCE     EQUILIB. ACCEPTED BASED ON SMALL RESIDUAL AND ESTIMATED CORRECTION
          TIME INCREMENT MAY NOW INCREASE TO    5.493E-04

 ITERATION SUMMARY FOR THE INCREMENT:   1 TOTAL ITERATIONS, OF WHICH
   0 ARE SEVERE DISCONTINUITY ITERATIONS AND  1 ARE EQUILIBRIUM ITERATIONS.

 TIME INCREMENT COMPLETED  4.395E-04,  FRACTION OF STEP COMPLETED  0.866    
 STEP TIME COMPLETED       8.658E-03,  TOTAL TIME COMPLETED        8.658E-03


  INCREMENT    11 STARTS. ATTEMPT NUMBER  1, TIME INCREMENT  5.493E-04
 
	UNSYMMETRIC NEW DIRECT SPARSE SOLVER RUNNING ON
 	1 HOST x 1 MPI RANK PER HOST x 1 THREAD PER RANK
        NUMBER OF EQUATIONS:  24
        NUMBER OF RHS:        1
        NUMBER OF FLOPS:      9.248e+03
        SOLVER ELAPSED TIME:  1ms
 

 ***NOTE: USER SUBROUTINE REQUESTS A TIME INCREMENT CHANGE.


  INCREMENT    11 STARTS. ATTEMPT NUMBER  2, TIME INCREMENT  4.120E-04
 
	UNSYMMETRIC NEW DIRECT SPARSE SOLVER RUNNING ON
 	1 HOST x 1 MPI RANK PER HOST x 1 THREAD PER RANK
        NUMBER OF EQUATIONS:  24
        NUMBER OF RHS:        1
        NUMBER OF FLOPS:      9.248e+03
        SOLVER ELAPSED TIME:  1ms

               CONVERGENCE CHECKS FOR EQUILIBRIUM ITERATION     1


 AVERAGE FORCE                       4.81       TIME AVG. FORCE        2.17    
 LARGEST SCALED RESIDUAL FORCE     -8.883E-05   AT NODE          8   DOF  3
  CORRESPONDING RESIDUAL FORCE     -8.883E-05
 LARGEST INCREMENT OF DISP.         1.236E-02   AT NODE          1   DOF  1
 LARGEST CORRECTION TO DISP.       -6.579E-04   AT NODE          3   DOF  3
 ESTIMATE OF DISP.    CORRECTION   -1.179E-07
 FORCE     EQUILIB. ACCEPTED BASED ON SMALL RESIDUAL AND ESTIMATED CORRECTION
          TIME INCREMENT MAY NOW INCREASE TO    5.150E-04

 ITERATION SUMMARY FOR THE INCREMENT:   1 TOTAL ITERATIONS, OF WHICH
   0 ARE SEVERE DISCONTINUITY ITERATIONS AND  1 ARE EQUILIBRIUM ITERATIONS.

 TIME INCREMENT COMPLETED  4.120E-04,  FRACTION OF STEP COMPLETED  0.907    
 STEP TIME COMPLETED       9.070E-03,  TOTAL TIME COMPLETED        9.070E-03


  INCREMENT    12 STARTS. ATTEMPT NUMBER  1, TIME INCREMENT  5.150E-04
 
	UNSYMMETRIC NEW DIRECT SPARSE SOLVER RUNNING ON
 	1 HOST x 1 MPI RANK PER HOST x 1 THREAD PER RANK
        NUMBER OF EQUATIONS:  24
        NUMBER OF RHS:        1
        NUMBER OF FLOPS:      9.248e+03
        SOLVER ELAPSED TIME:  1ms
 

 ***NOTE: USER SUBROUTINE REQUESTS A TIME INCREMENT CHANGE.


  INCREMENT    12 STARTS. ATTEMPT NUMBER  2, TIME INCREMENT  3.862E-04
 
	UNSYMMETRIC NEW DIRECT SPARSE SOLVER RUNNING ON
 	1 HOST x 1 MPI RANK PER HOST x 1 THREAD PER RANK
        NUMBER OF EQUATIONS:  24
        NUMBER OF RHS:        1
        NUMBER OF FLOPS:      9.248e+03
        SOLVER ELAPSED TIME:  1ms

               CONVERGENCE CHECKS FOR EQUILIBRIUM ITERATION     1


 AVERAGE FORCE                       5.56       TIME AVG. FORCE        2.45    
 LARGEST SCALED RESIDUAL FORCE     -1.636E-04   AT NODE          3   DOF  3
  CORRESPONDING RESIDUAL FORCE     -1.636E-04
 LARGEST INCREMENT OF DISP.         1.159E-02   AT NODE          1   DOF  1
 LARGEST CORRECTION TO DISP.       -6.118E-04   AT NODE          7   DOF  3
 ESTIMATE OF DISP.    CORRECTION   -2.037E-07
 FORCE     EQUILIB. ACCEPTED BASED ON SMALL RESIDUAL AND ESTIMATED CORRECTION
          TIME INCREMENT MAY NOW INCREASE TO    4.828E-04

 ITERATION SUMMARY FOR THE INCREMENT:   1 TOTAL ITERATIONS, OF WHICH
   0 ARE SEVERE DISCONTINUITY ITERATIONS AND  1 ARE EQUILIBRIUM ITERATIONS.

 TIME INCREMENT COMPLETED  3.862E-04,  FRACTION OF STEP COMPLETED  0.946    
 STEP TIME COMPLETED       9.456E-03,  TOTAL TIME COMPLETED        9.456E-03


  INCREMENT    13 STARTS. ATTEMPT NUMBER  1, TIME INCREMENT  4.828E-04
 
	UNSYMMETRIC NEW DIRECT SPARSE SOLVER RUNNING ON
 	1 HOST x 1 MPI RANK PER HOST x 1 THREAD PER RANK
        NUMBER OF EQUATIONS:  24
        NUMBER OF RHS:        1
        NUMBER OF FLOPS:      9.248e+03
        SOLVER ELAPSED TIME:  1ms
 

 ***NOTE: USER SUBROUTINE REQUESTS A TIME INCREMENT CHANGE.


  INCREMENT    13 STARTS. ATTEMPT NUMBER  2, TIME INCREMENT  3.621E-04
 
	UNSYMMETRIC NEW DIRECT SPARSE SOLVER RUNNING ON
 	1 HOST x 1 MPI RANK PER HOST x 1 THREAD PER RANK
        NUMBER OF EQUATIONS:  24
        NUMBER OF RHS:        1
        NUMBER OF FLOPS:      9.248e+03
        SOLVER ELAPSED TIME:  1ms
 

 ***NOTE: USER SUBROUTINE REQUESTS A TIME INCREMENT CHANGE.


  INCREMENT    13 STARTS. ATTEMPT NUMBER  3, TIME INCREMENT  2.716E-04
 
	UNSYMMETRIC NEW DIRECT SPARSE SOLVER RUNNING ON
 	1 HOST x 1 MPI RANK PER HOST x 1 THREAD PER RANK
        NUMBER OF EQUATIONS:  24
        NUMBER OF RHS:        1
        NUMBER OF FLOPS:      9.248e+03
        SOLVER ELAPSED TIME:  1ms

               CONVERGENCE CHECKS FOR EQUILIBRIUM ITERATION     1


 AVERAGE FORCE                       6.16       TIME AVG. FORCE        2.74    
 LARGEST SCALED RESIDUAL FORCE     -9.204E-05   AT NODE          3   DOF  3
  CORRESPONDING RESIDUAL FORCE     -9.204E-05
 LARGEST INCREMENT OF DISP.         8.147E-03   AT NODE          1   DOF  1
 LARGEST CORRECTION TO DISP.       -3.742E-04   AT NODE          4   DOF  3
 ESTIMATE OF DISP.    CORRECTION   -1.093E-07
 FORCE     EQUILIB. ACCEPTED BASED ON SMALL RESIDUAL AND ESTIMATED CORRECTION
          TIME INCREMENT MAY NOW INCREASE TO    3.395E-04

 ITERATION SUMMARY FOR THE INCREMENT:   1 TOTAL ITERATIONS, OF WHICH
   0 ARE SEVERE DISCONTINUITY ITERATIONS AND  1 ARE EQUILIBRIUM ITERATIONS.

 TIME INCREMENT COMPLETED  2.716E-04,  FRACTION OF STEP COMPLETED  0.973    
 STEP TIME COMPLETED       9.728E-03,  TOTAL TIME COMPLETED        9.728E-03


  INCREMENT    14 STARTS. ATTEMPT NUMBER  1, TIME INCREMENT  2.720E-04
 
	UNSYMMETRIC NEW DIRECT SPARSE SOLVER RUNNING ON
 	1 HOST x 1 MPI RANK PER HOST x 1 THREAD PER RANK
        NUMBER OF EQUATIONS:  24
        NUMBER OF RHS:        1
        NUMBER OF FLOPS:      9.248e+03
        SOLVER ELAPSED TIME:  1ms

               CONVERGENCE CHECKS FOR EQUILIBRIUM ITERATION     1


 AVERAGE FORCE                       6.82       TIME AVG. FORCE        3.03    
 LARGEST SCALED RESIDUAL FORCE     -9.989E-05   AT NODE          8   DOF  3
  CORRESPONDING RESIDUAL FORCE     -9.989E-05
 LARGEST INCREMENT OF DISP.         8.160E-03   AT NODE          1   DOF  1
 LARGEST CORRECTION TO DISP.       -3.252E-04   AT NODE          3   DOF  3
 ESTIMATE OF DISP.    CORRECTION   -1.127E-07
 FORCE     EQUILIB. ACCEPTED BASED ON SMALL RESIDUAL AND ESTIMATED CORRECTION

 ITERATION SUMMARY FOR THE INCREMENT:   1 TOTAL ITERATIONS, OF WHICH
   0 ARE SEVERE DISCONTINUITY ITERATIONS AND  1 ARE EQUILIBRIUM ITERATIONS.

 TIME INCREMENT COMPLETED  2.720E-04,  FRACTION OF STEP COMPLETED   1.00    
 STEP TIME COMPLETED       1.000E-02,  TOTAL TIME COMPLETED        1.000E-02


          THE ANALYSIS HAS BEEN COMPLETED



     ANALYSIS SUMMARY:
     TOTAL OF         14  INCREMENTS
                       7  CUTBACKS IN AUTOMATIC INCREMENTATION
                      26  ITERATIONS INCLUDING CONTACT ITERATIONS IF PRESENT
                      26  PASSES THROUGH THE EQUATION SOLVER OF WHICH 
                      26  INVOLVE MATRIX DECOMPOSITION, INCLUDING
                       0  DECOMPOSITION(S) OF THE MASS MATRIX
                       1  REORDERING OF EQUATIONS TO MINIMIZE WAVEFRONT
                       0  ADDITIONAL RESIDUAL EVALUATIONS FOR LINE SEARCHES
                       0  ADDITIONAL OPERATOR EVALUATIONS FOR LINE SEARCHES
                       2  WARNING MESSAGES DURING USER INPUT PROCESSING
                       0  WARNING MESSAGES DURING ANALYSIS
                       0  ANALYSIS WARNINGS ARE NUMERICAL PROBLEM MESSAGES
                       0  ANALYSIS WARNINGS ARE NEGATIVE EIGENVALUE MESSAGES
                       0  ERROR MESSAGES



     JOB TIME SUMMARY
       USER TIME (SEC)      =      1.4    
       SYSTEM TIME (SEC)    =     0.10    
       TOTAL CPU TIME (SEC) =      1.5    
       WALLCLOCK TIME (SEC) =            1
       MEMORY PEAK (GB)     =            2
