*Heading
** Job name: cube_indent Model name: Model-1
** Generated by: Abaqus/CAE 2024
*Preprint, echo=NO, model=NO, history=NO, contact=NO
**
** NODES (Cube)
**
*Node, nset=all_nodes
      1,           2.,           2.,           2.
      2,           2.,          1.5,           2.
      3,           2.,           1.,           2.
      4,           2.,          0.5,           2.
      5,           2.,           0.,           2.
      6,           2.,           2.,          1.5
      7,           2.,          1.5,          1.5
      8,           2.,           1.,          1.5
      9,           2.,          0.5,          1.5
     10,           2.,           0.,          1.5
     11,           2.,           2.,           1.
     12,           2.,          1.5,           1.
     13,           2.,           1.,           1.
     14,           2.,          0.5,           1.
     15,           2.,           0.,           1.
     16,           2.,           2.,          0.5
     17,           2.,          1.5,          0.5
     18,           2.,           1.,          0.5
     19,           2.,          0.5,          0.5
     20,           2.,           0.,          0.5
** ... 105 like lines cut
**
** NODE (Probe Reference Point)
**
*Node, nset=Set-RP
1000, 2.0,         2.25,           2.0
**
** EXTRA NODES
**
*Node, nset=extra_element
99992, 0.0,0.0,0.0
99993, 0.0001,0.0,0.0
99994, 0.0001,0.0001,0.0
99995, 0.0,0.0001,0.0
99996, 0.0,0.0,0.0001
99997, 0.0001,0.0,0.0001
99998, 0.0001,0.0001,0.0001
99999, 0.0,0.0001,0.0001
** ----------------------------------------------------------------
** USER ELEMENT DEFINITION
** ----------------------------------------------------------------
*User Element, type=U3,Nodes=8,Coordinates=3,Properties=21,Iproperties=2,Variables=120,Unsymm
1,2,3,11
** ----------------------------------------------------------------
** MESH
** ----------------------------------------------------------------
** MAIN MESH
*Element, type=U3, elset=main_mesh
 1,  26,  27,  32,  31,   1,   2,   7,   6
 2,  27,  28,  33,  32,   2,   3,   8,   7
 3,  28,  29,  34,  33,   3,   4,   9,   8
 4,  29,  30,  35,  34,   4,   5,  10,   9
 5,  31,  32,  37,  36,   6,   7,  12,  11
 6,  32,  33,  38,  37,   7,   8,  13,  12
 7,  33,  34,  39,  38,   8,   9,  14,  13
 8,  34,  35,  40,  39,   9,  10,  15,  14
 9,  36,  37,  42,  41,  11,  12,  17,  16
10,  37,  38,  43,  42,  12,  13,  18,  17
11,  38,  39,  44,  43,  13,  14,  19,  18
12,  39,  40,  45,  44,  14,  15,  20,  19
13,  41,  42,  47,  46,  16,  17,  22,  21
14,  42,  43,  48,  47,  17,  18,  23,  22
15,  43,  44,  49,  48,  18,  19,  24,  23
16,  44,  45,  50,  49,  19,  20,  25,  24
17,  51,  52,  57,  56,  26,  27,  32,  31
18,  52,  53,  58,  57,  27,  28,  33,  32
19,  53,  54,  59,  58,  28,  29,  34,  33
20,  54,  55,  60,  59,  29,  30,  35,  34
** ... 44 like lines cut
** DUMMY MESH (Visualization & Contact)
** Numbering offset: +1000
*Element, type=C3D8T, elset=dummy_mesh
1001,  26,  27,  32,  31,   1,   2,   7,   6
1002,  27,  28,  33,  32,   2,   3,   8,   7
1003,  28,  29,  34,  33,   3,   4,   9,   8
1004,  29,  30,  35,  34,   4,   5,  10,   9
1005,  31,  32,  37,  36,   6,   7,  12,  11
1006,  32,  33,  38,  37,   7,   8,  13,  12
1007,  33,  34,  39,  38,   8,   9,  14,  13
1008,  34,  35,  40,  39,   9,  10,  15,  14
1009,  36,  37,  42,  41,  11,  12,  17,  16
1010,  37,  38,  43,  42,  12,  13,  18,  17
1011,  38,  39,  44,  43,  13,  14,  19,  18
1012,  39,  40,  45,  44,  14,  15,  20,  19
1013,  41,  42,  47,  46,  16,  17,  22,  21
1014,  42,  43,  48,  47,  17,  18,  23,  22
1015,  43,  44,  49,  48,  18,  19,  24,  23
1016,  44,  45,  50,  49,  19,  20,  25,  24
1017,  51,  52,  57,  56,  26,  27,  32,  31
1018,  52,  53,  58,  57,  27,  28,  33,  32
1019,  53,  54,  59,  58,  28,  29,  34,  33
1020,  54,  55,  60,  59,  29,  30,  35,  34
** ... 44 like lines cut
**
** EXTRA ELEMENT
*Element,type=C3D8T,elset=extra_element
99999, 99992,99993,99994,99995,99996,99997,99998,99999
** ----------------------------------------------------------------
** NODE AND ELEMENT SETS
** ----------------------------------------------------------------
*Nset, nset=Set-Bottom, generate
   5,  125,    5
*Elset, elset=Set-Bottom, generate
  4,  64,   4
*Nset, nset=Set-XSYMM, generate
  1,  25,   1
*Elset, elset=Set-XSYMM, generate
  1,  16,   1
*Nset, nset=Set-ZSYMM
   1,   2,   3,   4,   5,  26,  27,  28,  29,  30,  51,  52,  53,  54,  55,  76,
  77,  78,  79,  80, 101, 102, 103, 104, 105
*Elset, elset=Set-ZSYMM
  1,  2,  3,  4, 17, 18, 19, 20, 33, 34, 35, 36, 49, 50, 51, 52
** ----------------------------------------------------------------
** SURFACES & CONTACT
** ----------------------------------------------------------------
** Define analytical rigid surface for the probe
*Surface, type=REVOLUTION, name=SURFACE-Probe
********
2.0, 2.75, 2.0,   2.0, 3.75, 2.0
START,          0.5,           0.
 CIRCL,           0.,         -0.5,           0.,           0.
*Rigid Body, ref node=1000, analytical surface=SURFACE-Probe
** Define contact surface on the DUMMY MESH, not the UEL!
*Elset, elset=_SURFACE-Top_S6, generate
  1001,  1061,   4
*Surface, type=ELEMENT, name=SURFACE-Top
_SURFACE-Top_S6, S6
*Surface Interaction, name=INTPROP-Frictionless
1.,
*Friction
0.,
*Surface Behavior, augmented Lagrange
*Contact Pair, interaction=INTPROP-Frictionless, type=SURFACE TO SURFACE
SURFACE-Top, SURFACE-Probe
*Imperfection
** Applies a small initial imperfection to the first node in the mesh, in the z-direction
** Prevents constantly homogeneous deformation
1,0,0,5.7062e-06
** ----------------------------------------------------------------
** PARAMETERS: MATERIAL and SIMULATION
** ----------------------------------------------------------------
*include, input=properties.inp
** ----------------------------------------------------------------
** MATERIAL DEFINITIONS
** ----------------------------------------------------------------
*Solid section, elset=extra_element, material=extra_material
*Solid section, elset=dummy_mesh, material=dummy_material
*Hourglass stiffness
250.0
**
*Material, name=extra_material
*Elastic
1.e-20
*Conductivity
1.0
*Density
1.0
*Specific heat
1.0
**
*Material, name=dummy_material
*User output variables
15
*elastic
1.e-20
*Conductivity
1.0
*Density
1.0
*Specific heat
1.0
**
** Include User Element Material Logic
*INCLUDE, file=sec_uel_cube.inp
**
************************************************************************
**			AMPLITUDE DEFINITION
************************************************************************
** *Amplitude, name=chemProfile
** 0.0,<INITMU>,<TF>,<MU0>
************************************************************************
** INITIAL CONDITIONS
************************************************************************
*Initial conditions, type=temperature
all_nodes, <INITMU>
*Initial conditions, type=temperature
extra_element, 0.0
** ----------------------------------------------------------------
** STEP DEFINITION: indentation
** ----------------------------------------------------------------
*Step, name=indentation, nlgeom=YES
** Updated to Coupled temp-disp to support DOF 11 (chemical potential)
*Coupled temperature-displacement, deltmx=100.0
0.001, 1., 1e-05, 0.1
**
** BOUNDARY CONDITIONS
** Fix Bottom
*Boundary
** Set-Bottom, ENCASTRE
Set-Bottom, YSYMM
**
** CHEMICAL BOUNDARY CONDITIONS
** *Boundary, amplitude=chemProfile
** Set-1, 11, 11, 1.0
** Set-7, 11, 11, 1.0
**
** Probe Displacement (Rigid Node 1000)
*Boundary
Set-RP, 1, 1
Set-RP, 2, 2, -0.75
Set-RP, 3, 3
Set-RP, 4, 4
Set-RP, 5, 5
Set-RP, 6, 6
**
** Symmetry
*Boundary
Set-XSYMM, XSYMM
Set-ZSYMM, ZSYMM
**
** Extra Element Fix
*Boundary
extra_element, encastre
extra_element, 11, 11, 0.0
**
** OUTPUT REQUESTS
*Restart, write, frequency=0
**
*Output, field, time marks=no
*node output, nset=all_nodes
u, nt, rf
*node output, nset=extra_element
u
*node output, nset=Set-RP
u, rf
*element output, elset=dummy_mesh
uvarm, le

*End Step
** ** ----------------------------------------------------------------
** ** STEP DEFINITION: relaxation
** ** ----------------------------------------------------------------
** *Step, name=relaxation, nlgeom=YES
** ** Long time period for fluid to diffuse (e.g., 10,000 seconds)
** *Coupled temperature-displacement, deltmx=100.0
** 0.1, 10000.0, 1e-05, 500.0
** **
** ** BOUNDARY CONDITIONS
** ** (No new boundary conditions are defined here)
** ** By default, Abaqus propagates all BCs from the previous step.
** **
** ** OUTPUT REQUESTS
** *Output, field, time marks=no
** *Node Output, nset=all_nodes
** u, nt, rf
** *Node Output, nset=Set-RP
** u, rf
** *Element Output, elset=dummy_mesh
** uvarm, le
** *End Step
