1

   Abaqus 2024                                  Date 13-Mar-2026   Time 12:28:27
   For use by Supplied by Team-SolidSQUAD under license from Dassault Systemes or its subsidiary.

                                                                                 
                                                                                 
 STEP    1     INCREMENT     1     STEP TIME    0.00    


                        S T E P       1     S T A T I C   A N A L Y S I S


                                                                                          

     AUTOMATIC TIME CONTROL WITH -
          A SUGGESTED INITIAL TIME INCREMENT OF                0.100    
          AND A TOTAL TIME PERIOD OF                            1.00    
          THE MINIMUM TIME INCREMENT ALLOWED IS                1.000E-05
          THE MAXIMUM TIME INCREMENT ALLOWED IS                0.200    

     LINEAR EQUATION SOLVER TYPE         DIRECT SPARSE

 CONVERGENCE TOLERANCE PARAMETERS FOR FORCE    
     CRITERION FOR RESIDUAL FORCE     FOR A NONLINEAR PROBLEM          5.000E-03
     CRITERION FOR DISP.    CORRECTION IN A NONLINEAR PROBLEM          1.000E-02
     INITIAL VALUE OF TIME AVERAGE FORCE                               1.000E-02
     AVERAGE FORCE     IS TIME AVERAGE FORCE    
     ALTERNATE CRIT. FOR RESIDUAL FORCE     FOR A NONLINEAR PROBLEM    2.000E-02
     CRITERION FOR ZERO FORCE     RELATIVE TO TIME AVRG. FORCE         1.000E-05
     CRITERION FOR RESIDUAL FORCE     WHEN THERE IS ZERO FLUX          1.000E-05
     CRITERION FOR DISP.    CORRECTION WHEN THERE IS ZERO FLUX         1.000E-03
     CRITERION FOR RESIDUAL FORCE     FOR A LINEAR INCREMENT           1.000E-08
     FIELD CONVERSION RATIO                                             1.00    
     CRITERION FOR ZERO FORCE     REL. TO TIME AVRG. MAX. FORCE        1.000E-05
     CRITERION FOR ZERO DISP.    RELATIVE TO CHARACTERISTIC LENGTH     1.000E-08

 CONVERGENCE TOLERANCE PARAMETERS FOR MOMENT   
     CRITERION FOR RESIDUAL MOMENT    FOR A NONLINEAR PROBLEM          5.000E-03
     CRITERION FOR ROTATION CORRECTION IN A NONLINEAR PROBLEM          1.000E-02
     INITIAL VALUE OF TIME AVERAGE MOMENT                              1.000E-02
     AVERAGE MOMENT    IS TIME AVERAGE MOMENT   
     ALTERNATE CRIT. FOR RESIDUAL MOMENT    FOR A NONLINEAR PROBLEM    2.000E-02
     CRITERION FOR ZERO MOMENT    RELATIVE TO TIME AVRG. MOMENT        1.000E-05
     CRITERION FOR RESIDUAL MOMENT    WHEN THERE IS ZERO FLUX          1.000E-05
     CRITERION FOR ROTATION CORRECTION WHEN THERE IS ZERO FLUX         1.000E-03
     CRITERION FOR RESIDUAL MOMENT    FOR A LINEAR INCREMENT           1.000E-08
     FIELD CONVERSION RATIO                                             1.00    
     CRITERION FOR ZERO MOMENT    REL. TO TIME AVRG. MAX. MOMENT       1.000E-05

     VOLUMETRIC STRAIN COMPATIBILITY TOLERANCE FOR HYBRID SOLIDS       1.000E-05
     AXIAL STRAIN COMPATIBILITY TOLERANCE FOR HYBRID BEAMS             1.000E-05
     TRANS. SHEAR STRAIN COMPATIBILITY TOLERANCE FOR HYBRID BEAMS      1.000E-05
     SOFT CONTACT CONSTRAINT COMPATIBILITY TOLERANCE FOR P>P0          5.000E-03
     SOFT CONTACT CONSTRAINT COMPATIBILITY TOLERANCE FOR P=0.0         0.100    
     CONTACT FORCE ERROR TOLERANCE FOR CONVERT SDI=YES                 1.00    
     DISPLACEMENT COMPATIBILITY TOLERANCE FOR DCOUP ELEMENTS           1.000E-05
     ROTATION COMPATIBILITY TOLERANCE FOR DCOUP ELEMENTS               1.000E-05

 EQUILIBRIUM WILL BE CHECKED FOR SEVERE DISCONTINUITY ITERATIONS

 TIME INCREMENTATION CONTROL PARAMETERS:
     FIRST EQUILIBRIUM ITERATION FOR CONSECUTIVE DIVERGENCE CHECK              4
     EQUILIBRIUM ITERATION AT WHICH LOG. CONVERGENCE RATE CHECK BEGINS         8
     EQUILIBRIUM ITERATION AFTER WHICH ALTERNATE RESIDUAL IS USED              9
     MAXIMUM EQUILIBRIUM ITERATIONS ALLOWED                                   16
     EQUILIBRIUM ITERATION COUNT FOR CUT-BACK IN NEXT INCREMENT               10
     MAXIMUM EQUILIB. ITERS IN TWO INCREMENTS FOR TIME INCREMENT INCREASE      4
     MAXIMUM ITERATIONS FOR SEVERE DISCONTINUITIES                            50
     MAXIMUM ATTEMPTS ALLOWED IN AN INCREMENT                                  5
     MAXIMUM DISCON. ITERS IN TWO INCREMENTS FOR TIME INCREMENT INCREASE      50
     MAXIMUM CONTACT AUGMENTATIONS FOR *SURFACE BEHAVIOR,AUGMENTED LAGRANGE   50
     CUT-BACK FACTOR AFTER DIVERGENCE                                 0.2500    
     CUT-BACK FACTOR FOR TOO SLOW CONVERGENCE                         0.5000    
     CUT-BACK FACTOR AFTER TOO MANY EQUILIBRIUM ITERATIONS            0.7500    
     CUT-BACK FACTOR AFTER TOO MANY SEVERE DISCONTINUITY ITERATIONS   0.2500    
     CUT-BACK FACTOR AFTER PROBLEMS IN ELEMENT ASSEMBLY               0.2500    
     INCREASE FACTOR AFTER TWO INCREMENTS THAT CONVERGE QUICKLY        1.500    
     MAX. TIME INCREMENT INCREASE FACTOR ALLOWED                       1.500    
     MAX. TIME INCREMENT INCREASE FACTOR ALLOWED (DYNAMICS)            1.250    
     MAX. TIME INCREMENT INCREASE FACTOR ALLOWED (DIFFUSION)           2.000    
     MINIMUM TIME INCREMENT RATIO FOR EXTRAPOLATION TO OCCUR          0.1000    
     MAX. RATIO OF TIME INCREMENT TO STABILITY LIMIT                   1.000    
     FRACTION OF STABILITY LIMIT FOR NEW TIME INCREMENT               0.9500    
     TIME INCREMENT INCREASE FACTOR BEFORE A TIME POINT                1.000    

 CONTACT CONTROLS APPLIED TO ALL CONTACT PAIRS:
     GLOBAL STABILIZATION CONTROL IS NOT USED
     RELATIVE PENETRATION TOLERANCE FOR AUGMENTED LAGRANGE CONTACT:
          FINITE-SLIDING SURFACE-TO-SURFACE                            5.000E-02
          OTHERWISE                                                    1.000E-03

          PRINT OF INCREMENT NUMBER, TIME, ETC., EVERY    1  INCREMENTS

     THE MAXIMUM NUMBER OF INCREMENTS IN THIS STEP IS                     100

          LARGE DISPLACEMENT THEORY WILL BE USED

     LINEAR EXTRAPOLATION WILL BE USED

     CHARACTERISTIC ELEMENT LENGTH     0.500    

     DETAILS REGARDING ACTUAL SOLUTION WAVEFRONT REQUESTED

     DETAILED OUTPUT OF DIAGNOSTICS TO DATABASE REQUESTED

     PRINT OF INCREMENT NUMBER, TIME, ETC., TO THE MESSAGE FILE EVERY     1  INCREMENTS

     ELEMENT OPERATIONS WILL BE CARRIED OUT IN PARALLEL USING   2 THREADS ON 1 DOMAIN

     PARALLEL CONTACT TRACKING ENABLED


     COLLECTING MODEL CONSTRAINT INFORMATION FOR OVERCONSTRAINT CHECKS

     COLLECTING STEP CONSTRAINT INFORMATION FOR OVERCONSTRAINT CHECKS


  INCREMENT     1 STARTS. ATTEMPT NUMBER  1, TIME INCREMENT  0.100    
 
     INITIAL ELEMENT LOAD BALANCE
            DOMAIN    1     THREAD    NUMBER OF ELEMENTS
                              1            41
                              2            88

 ***WARNING: THERE ARE 2 UNCONNECTED REGIONS IN THE MODEL.

 ***NOTE: SFM TYPE SURFACE ELEMENTS USED TO DEFINE CONTACT SURFACES NOT PART OF 
          A RIGID BODY MAY INCREASE THE NUMBER OR UNCONNECTED REGIONS REPORTED.
 
	SYMMETRIC NEW DIRECT SPARSE SOLVER RUNNING ON
 	1 HOST x 1 MPI RANK PER HOST x 2 THREADS PER RANK
        NUMBER OF EQUATIONS:  445
        NUMBER OF RHS:        1
        NUMBER OF FLOPS:      2.664e+06
        SOLVER ELAPSED TIME:  6ms

               CONVERGENCE CHECKS FOR EQUILIBRIUM ITERATION     1


 AVERAGE FORCE                       0.00       TIME AVG. FORCE       2.000E-02
                                                (FROM MOMENT    FIELD)
 ALL FORCE     RESIDUALS ARE ZERO
 LARGEST INCREMENT OF DISP.        -5.000E-02   AT NODE          1   DOF  2
   INSTANCE: PROBE-1                                                                         
 LARGEST CORRECTION TO DISP.       -5.000E-02   AT NODE          1   DOF  2
   INSTANCE: PROBE-1                                                                         
          THERE IS ZERO FORCE     EVERYWHERE

 AVERAGE MOMENT                      0.00       TIME AVG. MOMENT      1.000E-02
 ALL MOMENT    RESIDUALS ARE ZERO
 ALL ROTATION INCREMENTS ARE ZERO
 ALL CORRECTION TO ROTATION ARE ZERO
          THERE IS ZERO MOMENT    EVERYWHERE

 ITERATION SUMMARY FOR THE INCREMENT:   1 TOTAL ITERATIONS, OF WHICH
   0 ARE SEVERE DISCONTINUITY ITERATIONS AND  1 ARE EQUILIBRIUM ITERATIONS.

 TIME INCREMENT COMPLETED  0.100    ,  FRACTION OF STEP COMPLETED  0.100    
 STEP TIME COMPLETED       0.100    ,  TOTAL TIME COMPLETED        0.100    


  INCREMENT     2 STARTS. ATTEMPT NUMBER  1, TIME INCREMENT  0.100    
 
	SYMMETRIC NEW DIRECT SPARSE SOLVER RUNNING ON
 	1 HOST x 1 MPI RANK PER HOST x 2 THREADS PER RANK
        NUMBER OF EQUATIONS:  445
        NUMBER OF RHS:        1
        NUMBER OF FLOPS:      2.664e+06
        SOLVER ELAPSED TIME:  1ms

               CONVERGENCE CHECKS FOR EQUILIBRIUM ITERATION     1


 AVERAGE FORCE                       0.00       TIME AVG. FORCE       2.000E-02
                                                (FROM MOMENT    FIELD)
 ALL FORCE     RESIDUALS ARE ZERO
 LARGEST INCREMENT OF DISP.        -5.000E-02   AT NODE          1   DOF  2
   INSTANCE: PROBE-1                                                                         
 LARGEST CORRECTION TO DISP.       -1.388E-17   AT NODE          1   DOF  2
   INSTANCE: PROBE-1                                                                         
          THERE IS ZERO FORCE     EVERYWHERE

 AVERAGE MOMENT                      0.00       TIME AVG. MOMENT      1.000E-02
 ALL MOMENT    RESIDUALS ARE ZERO
 ALL ROTATION INCREMENTS ARE ZERO
 ALL CORRECTION TO ROTATION ARE ZERO
          THERE IS ZERO MOMENT    EVERYWHERE
          TIME INCREMENT MAY NOW INCREASE TO    0.150    

 ITERATION SUMMARY FOR THE INCREMENT:   1 TOTAL ITERATIONS, OF WHICH
   0 ARE SEVERE DISCONTINUITY ITERATIONS AND  1 ARE EQUILIBRIUM ITERATIONS.

 TIME INCREMENT COMPLETED  0.100    ,  FRACTION OF STEP COMPLETED  0.200    
 STEP TIME COMPLETED       0.200    ,  TOTAL TIME COMPLETED        0.200    


  INCREMENT     3 STARTS. ATTEMPT NUMBER  1, TIME INCREMENT  0.150    
 
	SYMMETRIC NEW DIRECT SPARSE SOLVER RUNNING ON
 	1 HOST x 1 MPI RANK PER HOST x 2 THREADS PER RANK
        NUMBER OF EQUATIONS:  445
        NUMBER OF RHS:        1
        NUMBER OF FLOPS:      2.664e+06
        SOLVER ELAPSED TIME:  2ms

               CONVERGENCE CHECKS FOR EQUILIBRIUM ITERATION     1


 AVERAGE FORCE                       0.00       TIME AVG. FORCE       2.000E-02
                                                (FROM MOMENT    FIELD)
 ALL FORCE     RESIDUALS ARE ZERO
 LARGEST INCREMENT OF DISP.        -7.500E-02   AT NODE          1   DOF  2
   INSTANCE: PROBE-1                                                                         
 LARGEST CORRECTION TO DISP.        4.163E-17   AT NODE          1   DOF  2
   INSTANCE: PROBE-1                                                                         
          THERE IS ZERO FORCE     EVERYWHERE

 AVERAGE MOMENT                      0.00       TIME AVG. MOMENT      1.000E-02
 ALL MOMENT    RESIDUALS ARE ZERO
 ALL ROTATION INCREMENTS ARE ZERO
 ALL CORRECTION TO ROTATION ARE ZERO
          THERE IS ZERO MOMENT    EVERYWHERE
          TIME INCREMENT MAY NOW INCREASE TO    0.200    

 ITERATION SUMMARY FOR THE INCREMENT:   1 TOTAL ITERATIONS, OF WHICH
   0 ARE SEVERE DISCONTINUITY ITERATIONS AND  1 ARE EQUILIBRIUM ITERATIONS.

 TIME INCREMENT COMPLETED  0.150    ,  FRACTION OF STEP COMPLETED  0.350    
 STEP TIME COMPLETED       0.350    ,  TOTAL TIME COMPLETED        0.350    


  INCREMENT     4 STARTS. ATTEMPT NUMBER  1, TIME INCREMENT  0.200    
 
	SYMMETRIC NEW DIRECT SPARSE SOLVER RUNNING ON
 	1 HOST x 1 MPI RANK PER HOST x 2 THREADS PER RANK
        NUMBER OF EQUATIONS:  445
        NUMBER OF RHS:        1
        NUMBER OF FLOPS:      2.664e+06
        SOLVER ELAPSED TIME:  1ms

               CONVERGENCE CHECKS FOR EQUILIBRIUM ITERATION     1


 AVERAGE FORCE                       0.00       TIME AVG. FORCE       2.000E-02
                                                (FROM MOMENT    FIELD)
 ALL FORCE     RESIDUALS ARE ZERO
 LARGEST INCREMENT OF DISP.        -0.100       AT NODE          1   DOF  2
   INSTANCE: PROBE-1                                                                         
 LARGEST CORRECTION TO DISP.       -6.939E-17   AT NODE          1   DOF  2
   INSTANCE: PROBE-1                                                                         
          THERE IS ZERO FORCE     EVERYWHERE

 AVERAGE MOMENT                      0.00       TIME AVG. MOMENT      1.000E-02
 ALL MOMENT    RESIDUALS ARE ZERO
 ALL ROTATION INCREMENTS ARE ZERO
 ALL CORRECTION TO ROTATION ARE ZERO
          THERE IS ZERO MOMENT    EVERYWHERE

 ITERATION SUMMARY FOR THE INCREMENT:   1 TOTAL ITERATIONS, OF WHICH
   0 ARE SEVERE DISCONTINUITY ITERATIONS AND  1 ARE EQUILIBRIUM ITERATIONS.

 TIME INCREMENT COMPLETED  0.200    ,  FRACTION OF STEP COMPLETED  0.550    
 STEP TIME COMPLETED       0.550    ,  TOTAL TIME COMPLETED        0.550    


  INCREMENT     5 STARTS. ATTEMPT NUMBER  1, TIME INCREMENT  0.200    
 
	SYMMETRIC NEW DIRECT SPARSE SOLVER RUNNING ON
 	1 HOST x 1 MPI RANK PER HOST x 2 THREADS PER RANK
        NUMBER OF EQUATIONS:  445
        NUMBER OF RHS:        1
        NUMBER OF FLOPS:      2.664e+06
        SOLVER ELAPSED TIME:  1ms

                    1 SEVERE DISCONTINUITIES OCCURRED DURING THIS ITERATION.
                    1 POINTS CHANGED FROM OPEN TO CLOSED

               CONVERGENCE CHECKS FOR SEVERE DISCONTINUITY ITERATION     1

   MAX. PENETRATION ERROR 80.5168E-03  AT NODE CUBE-1.1 OF CONTACT PAIR 
   (ASSEMBLY_SURFACE-TOP,ASSEMBLY_PROBE-1_SURFACE-PROBE)
   MAX. CONTACT FORCE ERROR 603.272E-03   AT NODE CUBE-1.1 OF CONTACT PAIR 
   (ASSEMBLY_SURFACE-TOP,ASSEMBLY_PROBE-1_SURFACE-PROBE)
          PENETRATION ERROR TOO LARGE COMPARED TO DISPLACEMENT INCREMENT.

 AVERAGE FORCE                      8.886E-06   TIME AVG. FORCE       8.886E-06
 LARGEST SCALED RESIDUAL FORCE     -2.831E-03   AT NODE          1   DOF  2
   INSTANCE: CUBE-1                                                                          
  CORRESPONDING RESIDUAL FORCE     -2.831E-03
 LARGEST INCREMENT OF DISP.        -0.100       AT NODE          1   DOF  2
   INSTANCE: PROBE-1                                                                         
 LARGEST CORRECTION TO DISP.        8.327E-17   AT NODE          1   DOF  2
   INSTANCE: PROBE-1                                                                         
          FORCE     EQUILIBRIUM NOT ACHIEVED WITHIN TOLERANCE.

 AVERAGE MOMENT                     1.048E-04   TIME AVG. MOMENT      1.048E-04
 ALL MOMENT    RESIDUALS ARE ZERO
 ALL ROTATION INCREMENTS ARE ZERO
 ALL CORRECTION TO ROTATION ARE ZERO
          THE MOMENT    EQUILIBRIUM EQUATIONS HAVE CONVERGED
 
	SYMMETRIC NEW DIRECT SPARSE SOLVER RUNNING ON
 	1 HOST x 1 MPI RANK PER HOST x 2 THREADS PER RANK
        NUMBER OF EQUATIONS:  445
        NUMBER OF RHS:        1
        NUMBER OF FLOPS:      2.687e+06
        SOLVER ELAPSED TIME:  1ms

               CONVERGENCE CHECKS FOR EQUILIBRIUM ITERATION     1

   MAX. PENETRATION ERROR -680.165E-06   AT NODE CUBE-1.1 OF CONTACT PAIR 
   (ASSEMBLY_SURFACE-TOP,ASSEMBLY_PROBE-1_SURFACE-PROBE)
   MAX. CONTACT FORCE ERROR -5.36309E-03 AT NODE CUBE-1.1 OF CONTACT PAIR 
   (ASSEMBLY_SURFACE-TOP,ASSEMBLY_PROBE-1_SURFACE-PROBE)
          PENETRATION ERROR TOO LARGE COMPARED TO DISPLACEMENT INCREMENT.

 AVERAGE FORCE                      1.735E-03   TIME AVG. FORCE       1.735E-03
 LARGEST SCALED RESIDUAL FORCE     -3.073E-03   AT NODE          2   DOF  2
   INSTANCE: CUBE-1                                                                          
  CORRESPONDING RESIDUAL FORCE     -3.073E-03
 LARGEST INCREMENT OF DISP.        -0.127       AT NODE          1   DOF  2
   INSTANCE: CUBE-1                                                                          
 LARGEST CORRECTION TO DISP.       -0.127       AT NODE          1   DOF  2
   INSTANCE: CUBE-1                                                                          
          FORCE     EQUILIBRIUM NOT ACHIEVED WITHIN TOLERANCE.

 AVERAGE MOMENT                     2.719E-03   TIME AVG. MOMENT      2.719E-03
 ALL MOMENT    RESIDUALS ARE ZERO
 LARGEST INCREMENT OF ROTATION      1.432E-38   AT NODE          1   DOF  4
   INSTANCE: PROBE-1                                                                         
 LARGEST CORRECTION TO ROTATION     1.432E-38   AT NODE          1   DOF  4
   INSTANCE: PROBE-1                                                                         
          THE MOMENT    EQUILIBRIUM RESPONSE WAS LINEAR IN THIS INCREMENT

 COMPATIBILITY ERRORS:
    TYPE                NUMBER EXCEEDING TOLERANCE  MAXIMUM ERROR        IN ELEMENT
 VOLUMETRIC                         33                1.177E-03                  2
   INSTANCE: CUBE-1                                                                          
 
	SYMMETRIC NEW DIRECT SPARSE SOLVER RUNNING ON
 	1 HOST x 1 MPI RANK PER HOST x 2 THREADS PER RANK
        NUMBER OF EQUATIONS:  445
        NUMBER OF RHS:        1
        NUMBER OF FLOPS:      2.687e+06
        SOLVER ELAPSED TIME:  1ms

               CONVERGENCE CHECKS FOR EQUILIBRIUM ITERATION     2

   MAX. PENETRATION ERROR -6.08104E-06 AT NODE CUBE-1.1 OF CONTACT PAIR 
   (ASSEMBLY_SURFACE-TOP,ASSEMBLY_PROBE-1_SURFACE-PROBE)
   MAX. CONTACT FORCE ERROR -47.8756E-06  AT NODE CUBE-1.1 OF CONTACT PAIR 
   (ASSEMBLY_SURFACE-TOP,ASSEMBLY_PROBE-1_SURFACE-PROBE)
          THE CONTACT CONSTRAINTS HAVE CONVERGED.

 AVERAGE FORCE                      1.585E-03   TIME AVG. FORCE       1.585E-03
 LARGEST SCALED RESIDUAL FORCE      1.687E-04   AT NODE          1   DOF  2
   INSTANCE: CUBE-1                                                                          
  CORRESPONDING RESIDUAL FORCE      1.687E-04
 LARGEST INCREMENT OF DISP.        -0.126       AT NODE          1   DOF  2
   INSTANCE: CUBE-1                                                                          
 LARGEST CORRECTION TO DISP.        1.776E-03   AT NODE          1   DOF  2
   INSTANCE: CUBE-1                                                                          
          FORCE     EQUILIBRIUM NOT ACHIEVED WITHIN TOLERANCE.

 AVERAGE MOMENT                     2.582E-03   TIME AVG. MOMENT      2.582E-03
 ALL MOMENT    RESIDUALS ARE ZERO
 LARGEST INCREMENT OF ROTATION      1.551E-38   AT NODE          1   DOF  4
   INSTANCE: PROBE-1                                                                         
 LARGEST CORRECTION TO ROTATION    -1.188E-39   AT NODE          1   DOF  6
   INSTANCE: PROBE-1                                                                         
          THE MOMENT    EQUILIBRIUM EQUATIONS HAVE CONVERGED

 COMPATIBILITY ERRORS:
    TYPE                NUMBER EXCEEDING TOLERANCE  MAXIMUM ERROR        IN ELEMENT
 VOLUMETRIC                          0               -7.854E-07                  2
   INSTANCE: CUBE-1                                                                          
 
	SYMMETRIC NEW DIRECT SPARSE SOLVER RUNNING ON
 	1 HOST x 1 MPI RANK PER HOST x 2 THREADS PER RANK
        NUMBER OF EQUATIONS:  445
        NUMBER OF RHS:        1
        NUMBER OF FLOPS:      2.687e+06
        SOLVER ELAPSED TIME:  1ms

               CONVERGENCE CHECKS FOR EQUILIBRIUM ITERATION     3

   MAX. PENETRATION ERROR -356.431E-09   AT NODE CUBE-1.1 OF CONTACT PAIR 
   (ASSEMBLY_SURFACE-TOP,ASSEMBLY_PROBE-1_SURFACE-PROBE)
   MAX. CONTACT FORCE ERROR -2.80612E-06 AT NODE CUBE-1.1 OF CONTACT PAIR 
   (ASSEMBLY_SURFACE-TOP,ASSEMBLY_PROBE-1_SURFACE-PROBE)
          THE CONTACT CONSTRAINTS HAVE CONVERGED.

 AVERAGE FORCE                      1.586E-03   TIME AVG. FORCE       1.586E-03
 LARGEST SCALED RESIDUAL FORCE      1.825E-06   AT NODE          1   DOF  2
   INSTANCE: CUBE-1                                                                          
  CORRESPONDING RESIDUAL FORCE      1.825E-06
 LARGEST INCREMENT OF DISP.        -0.125       AT NODE          1   DOF  2
   INSTANCE: CUBE-1                                                                          
 LARGEST CORRECTION TO DISP.        2.929E-05   AT NODE          1   DOF  2
   INSTANCE: CUBE-1                                                                          
          THE FORCE     EQUILIBRIUM EQUATIONS HAVE CONVERGED

 AVERAGE MOMENT                     2.588E-03   TIME AVG. MOMENT      2.588E-03
 ALL MOMENT    RESIDUALS ARE ZERO
 LARGEST INCREMENT OF ROTATION     -1.553E-38   AT NODE          1   DOF  6
   INSTANCE: PROBE-1                                                                         
 LARGEST CORRECTION TO ROTATION    -1.615E-41   AT NODE          1   DOF  6
   INSTANCE: PROBE-1                                                                         
          THE MOMENT    EQUILIBRIUM EQUATIONS HAVE CONVERGED

 COMPATIBILITY ERRORS:
    TYPE                NUMBER EXCEEDING TOLERANCE  MAXIMUM ERROR        IN ELEMENT
 VOLUMETRIC                          0               -1.025E-10                  1
   INSTANCE: CUBE-1                                                                          

 ITERATION SUMMARY FOR THE INCREMENT:   4 TOTAL ITERATIONS, OF WHICH
   1 ARE SEVERE DISCONTINUITY ITERATIONS AND  3 ARE EQUILIBRIUM ITERATIONS.

 TIME INCREMENT COMPLETED  0.200    ,  FRACTION OF STEP COMPLETED  0.750    
 STEP TIME COMPLETED       0.750    ,  TOTAL TIME COMPLETED        0.750    


  INCREMENT     6 STARTS. ATTEMPT NUMBER  1, TIME INCREMENT  0.200    
 
	SYMMETRIC NEW DIRECT SPARSE SOLVER RUNNING ON
 	1 HOST x 1 MPI RANK PER HOST x 2 THREADS PER RANK
        NUMBER OF EQUATIONS:  445
        NUMBER OF RHS:        1
        NUMBER OF FLOPS:      2.687e+06
        SOLVER ELAPSED TIME:  1ms

               CONVERGENCE CHECKS FOR EQUILIBRIUM ITERATION     1

   MAX. PENETRATION ERROR -634.331E-06   AT NODE CUBE-1.1 OF CONTACT PAIR 
   (ASSEMBLY_SURFACE-TOP,ASSEMBLY_PROBE-1_SURFACE-PROBE)
   MAX. CONTACT FORCE ERROR -5.57322E-03 AT NODE CUBE-1.1 OF CONTACT PAIR 
   (ASSEMBLY_SURFACE-TOP,ASSEMBLY_PROBE-1_SURFACE-PROBE)
          THE ESTIMATED CONTACT FORCE ERROR IS OUTSIDE OF CONVERGENCE TOLERANCES.

 AVERAGE FORCE                      3.999E-03   TIME AVG. FORCE       2.793E-03
 LARGEST SCALED RESIDUAL FORCE     -6.328E-03   AT NODE          1   DOF  2
   INSTANCE: CUBE-1                                                                          
  CORRESPONDING RESIDUAL FORCE     -6.328E-03
 LARGEST INCREMENT OF DISP.        -0.151       AT NODE          1   DOF  2
   INSTANCE: CUBE-1                                                                          
 LARGEST CORRECTION TO DISP.       -2.509E-02   AT NODE          1   DOF  2
   INSTANCE: CUBE-1                                                                          
          FORCE     EQUILIBRIUM NOT ACHIEVED WITHIN TOLERANCE.

 AVERAGE MOMENT                     3.974E-02   TIME AVG. MOMENT      2.116E-02
 ALL MOMENT    RESIDUALS ARE ZERO
 LARGEST INCREMENT OF ROTATION     -4.036E-38   AT NODE          1   DOF  6
   INSTANCE: PROBE-1                                                                         
 LARGEST CORRECTION TO ROTATION    -2.484E-38   AT NODE          1   DOF  6
   INSTANCE: PROBE-1                                                                         
          THE MOMENT    EQUILIBRIUM RESPONSE WAS LINEAR IN THIS INCREMENT

 COMPATIBILITY ERRORS:
    TYPE                NUMBER EXCEEDING TOLERANCE  MAXIMUM ERROR        IN ELEMENT
 VOLUMETRIC                          9                8.568E-05                  2
   INSTANCE: CUBE-1                                                                          
 
	SYMMETRIC NEW DIRECT SPARSE SOLVER RUNNING ON
 	1 HOST x 1 MPI RANK PER HOST x 2 THREADS PER RANK
        NUMBER OF EQUATIONS:  445
        NUMBER OF RHS:        1
        NUMBER OF FLOPS:      2.687e+06
        SOLVER ELAPSED TIME:  1ms

               CONVERGENCE CHECKS FOR EQUILIBRIUM ITERATION     2

   MAX. PENETRATION ERROR -21.9705E-06  AT NODE CUBE-1.1 OF CONTACT PAIR 
   (ASSEMBLY_SURFACE-TOP,ASSEMBLY_PROBE-1_SURFACE-PROBE)
   MAX. CONTACT FORCE ERROR -193.238E-06   AT NODE CUBE-1.1 OF CONTACT PAIR 
   (ASSEMBLY_SURFACE-TOP,ASSEMBLY_PROBE-1_SURFACE-PROBE)
          THE CONTACT CONSTRAINTS HAVE CONVERGED.

 AVERAGE FORCE                      4.017E-03   TIME AVG. FORCE       2.801E-03
 LARGEST SCALED RESIDUAL FORCE     -8.818E-05   AT NODE          1   DOF  2
   INSTANCE: CUBE-1                                                                          
  CORRESPONDING RESIDUAL FORCE     -8.818E-05
 LARGEST INCREMENT OF DISP.        -0.151       AT NODE          1   DOF  2
   INSTANCE: CUBE-1                                                                          
 LARGEST CORRECTION TO DISP.        2.482E-03   AT NODE          6   DOF  2
   INSTANCE: CUBE-1                                                                          
          FORCE     EQUILIBRIUM NOT ACHIEVED WITHIN TOLERANCE.

 AVERAGE MOMENT                     3.830E-02   TIME AVG. MOMENT      2.044E-02
 ALL MOMENT    RESIDUALS ARE ZERO
 LARGEST INCREMENT OF ROTATION      3.824E-38   AT NODE          1   DOF  4
   INSTANCE: PROBE-1                                                                         
 LARGEST CORRECTION TO ROTATION     2.125E-39   AT NODE          1   DOF  6
   INSTANCE: PROBE-1                                                                         
          THE MOMENT    EQUILIBRIUM EQUATIONS HAVE CONVERGED

 COMPATIBILITY ERRORS:
    TYPE                NUMBER EXCEEDING TOLERANCE  MAXIMUM ERROR        IN ELEMENT
 VOLUMETRIC                          0                6.195E-07                  2
   INSTANCE: CUBE-1                                                                          
 
	SYMMETRIC NEW DIRECT SPARSE SOLVER RUNNING ON
 	1 HOST x 1 MPI RANK PER HOST x 2 THREADS PER RANK
        NUMBER OF EQUATIONS:  445
        NUMBER OF RHS:        1
        NUMBER OF FLOPS:      2.687e+06
        SOLVER ELAPSED TIME:  1ms

               CONVERGENCE CHECKS FOR EQUILIBRIUM ITERATION     3

   MAX. PENETRATION ERROR 2.27871E-06 AT NODE CUBE-1.1 OF CONTACT PAIR 
   (ASSEMBLY_SURFACE-TOP,ASSEMBLY_PROBE-1_SURFACE-PROBE)
   MAX. CONTACT FORCE ERROR 20.0406E-06  AT NODE CUBE-1.1 OF CONTACT PAIR 
   (ASSEMBLY_SURFACE-TOP,ASSEMBLY_PROBE-1_SURFACE-PROBE)
          THE CONTACT CONSTRAINTS HAVE CONVERGED.

 AVERAGE FORCE                      4.102E-03   TIME AVG. FORCE       2.844E-03
 LARGEST SCALED RESIDUAL FORCE      1.708E-05   AT NODE          1   DOF  2
   INSTANCE: CUBE-1                                                                          
  CORRESPONDING RESIDUAL FORCE      1.708E-05
 LARGEST INCREMENT OF DISP.        -0.151       AT NODE          1   DOF  2
   INSTANCE: CUBE-1                                                                          
 LARGEST CORRECTION TO DISP.        5.527E-05   AT NODE          1   DOF  2
   INSTANCE: CUBE-1                                                                          
          FORCE     EQUILIBRIUM NOT ACHIEVED WITHIN TOLERANCE.

 AVERAGE MOMENT                     3.826E-02   TIME AVG. MOMENT      2.043E-02
 ALL MOMENT    RESIDUALS ARE ZERO
 LARGEST INCREMENT OF ROTATION      3.827E-38   AT NODE          1   DOF  4
   INSTANCE: PROBE-1                                                                         
 LARGEST CORRECTION TO ROTATION    -2.619E-41   AT NODE          1   DOF  6
   INSTANCE: PROBE-1                                                                         
          THE MOMENT    EQUILIBRIUM EQUATIONS HAVE CONVERGED

 COMPATIBILITY ERRORS:
    TYPE                NUMBER EXCEEDING TOLERANCE  MAXIMUM ERROR        IN ELEMENT
 VOLUMETRIC                          0                2.087E-10                  1
   INSTANCE: CUBE-1                                                                          
 
	SYMMETRIC NEW DIRECT SPARSE SOLVER RUNNING ON
 	1 HOST x 1 MPI RANK PER HOST x 2 THREADS PER RANK
        NUMBER OF EQUATIONS:  445
        NUMBER OF RHS:        1
        NUMBER OF FLOPS:      2.687e+06
        SOLVER ELAPSED TIME:  1ms

               CONVERGENCE CHECKS FOR EQUILIBRIUM ITERATION     4

   MAX. PENETRATION ERROR -24.0428E-09  AT NODE CUBE-1.1 OF CONTACT PAIR 
   (ASSEMBLY_SURFACE-TOP,ASSEMBLY_PROBE-1_SURFACE-PROBE)
   MAX. CONTACT FORCE ERROR -211.450E-09   AT NODE CUBE-1.1 OF CONTACT PAIR 
   (ASSEMBLY_SURFACE-TOP,ASSEMBLY_PROBE-1_SURFACE-PROBE)
          THE CONTACT CONSTRAINTS HAVE CONVERGED.

 AVERAGE FORCE                      4.102E-03   TIME AVG. FORCE       2.844E-03
 LARGEST SCALED RESIDUAL FORCE     -3.886E-07   AT NODE          1   DOF  2
   INSTANCE: CUBE-1                                                                          
  CORRESPONDING RESIDUAL FORCE     -3.886E-07
 LARGEST INCREMENT OF DISP.        -0.151       AT NODE          1   DOF  2
   INSTANCE: CUBE-1                                                                          
 LARGEST CORRECTION TO DISP.       -5.399E-06   AT NODE          6   DOF  2
   INSTANCE: CUBE-1                                                                          
          THE FORCE     EQUILIBRIUM EQUATIONS HAVE CONVERGED

 AVERAGE MOMENT                     3.827E-02   TIME AVG. MOMENT      2.043E-02
 ALL MOMENT    RESIDUALS ARE ZERO
 LARGEST INCREMENT OF ROTATION      3.827E-38   AT NODE          1   DOF  4
   INSTANCE: PROBE-1                                                                         
 LARGEST CORRECTION TO ROTATION    -3.933E-42   AT NODE          1   DOF  6
   INSTANCE: PROBE-1                                                                         
          THE MOMENT    EQUILIBRIUM EQUATIONS HAVE CONVERGED

 COMPATIBILITY ERRORS:
    TYPE                NUMBER EXCEEDING TOLERANCE  MAXIMUM ERROR        IN ELEMENT
 VOLUMETRIC                          0                3.803E-12                  2
   INSTANCE: CUBE-1                                                                          

 ITERATION SUMMARY FOR THE INCREMENT:   4 TOTAL ITERATIONS, OF WHICH
   0 ARE SEVERE DISCONTINUITY ITERATIONS AND  4 ARE EQUILIBRIUM ITERATIONS.

 TIME INCREMENT COMPLETED  0.200    ,  FRACTION OF STEP COMPLETED  0.950    
 STEP TIME COMPLETED       0.950    ,  TOTAL TIME COMPLETED        0.950    


  INCREMENT     7 STARTS. ATTEMPT NUMBER  1, TIME INCREMENT  5.000E-02
 
	SYMMETRIC NEW DIRECT SPARSE SOLVER RUNNING ON
 	1 HOST x 1 MPI RANK PER HOST x 2 THREADS PER RANK
        NUMBER OF EQUATIONS:  445
        NUMBER OF RHS:        1
        NUMBER OF FLOPS:      2.687e+06
        SOLVER ELAPSED TIME:  1ms

               CONVERGENCE CHECKS FOR EQUILIBRIUM ITERATION     1

   MAX. PENETRATION ERROR -43.6866E-06  AT NODE CUBE-1.1 OF CONTACT PAIR 
   (ASSEMBLY_SURFACE-TOP,ASSEMBLY_PROBE-1_SURFACE-PROBE)
   MAX. CONTACT FORCE ERROR -396.232E-06   AT NODE CUBE-1.1 OF CONTACT PAIR 
   (ASSEMBLY_SURFACE-TOP,ASSEMBLY_PROBE-1_SURFACE-PROBE)
          THE CONTACT CONSTRAINTS HAVE CONVERGED.

 AVERAGE FORCE                      4.790E-03   TIME AVG. FORCE       3.493E-03
 LARGEST SCALED RESIDUAL FORCE     -5.805E-04   AT NODE          1   DOF  2
   INSTANCE: CUBE-1                                                                          
  CORRESPONDING RESIDUAL FORCE     -5.805E-04
 LARGEST INCREMENT OF DISP.        -3.685E-02   AT NODE          1   DOF  2
   INSTANCE: CUBE-1                                                                          
 LARGEST CORRECTION TO DISP.       -1.167E-02   AT NODE          6   DOF  2
   INSTANCE: CUBE-1                                                                          
          FORCE     EQUILIBRIUM NOT ACHIEVED WITHIN TOLERANCE.

 AVERAGE MOMENT                     5.238E-02   TIME AVG. MOMENT      3.108E-02
 ALL MOMENT    RESIDUALS ARE ZERO
 LARGEST INCREMENT OF ROTATION      5.276E-38   AT NODE          1   DOF  4
   INSTANCE: PROBE-1                                                                         
 LARGEST CORRECTION TO ROTATION     4.319E-38   AT NODE          1   DOF  4
   INSTANCE: PROBE-1                                                                         
          THE MOMENT    EQUILIBRIUM RESPONSE WAS LINEAR IN THIS INCREMENT

 COMPATIBILITY ERRORS:
    TYPE                NUMBER EXCEEDING TOLERANCE  MAXIMUM ERROR        IN ELEMENT
 VOLUMETRIC                          1                1.387E-05                  2
   INSTANCE: CUBE-1                                                                          
 
	SYMMETRIC NEW DIRECT SPARSE SOLVER RUNNING ON
 	1 HOST x 1 MPI RANK PER HOST x 2 THREADS PER RANK
        NUMBER OF EQUATIONS:  445
        NUMBER OF RHS:        1
        NUMBER OF FLOPS:      2.687e+06
        SOLVER ELAPSED TIME:  1ms

               CONVERGENCE CHECKS FOR EQUILIBRIUM ITERATION     2

   MAX. PENETRATION ERROR -5.13186E-06 AT NODE CUBE-1.1 OF CONTACT PAIR 
   (ASSEMBLY_SURFACE-TOP,ASSEMBLY_PROBE-1_SURFACE-PROBE)
   MAX. CONTACT FORCE ERROR -46.5420E-06  AT NODE CUBE-1.1 OF CONTACT PAIR 
   (ASSEMBLY_SURFACE-TOP,ASSEMBLY_PROBE-1_SURFACE-PROBE)
          THE CONTACT CONSTRAINTS HAVE CONVERGED.

 AVERAGE FORCE                      4.951E-03   TIME AVG. FORCE       3.547E-03
 LARGEST SCALED RESIDUAL FORCE     -3.592E-05   AT NODE          1   DOF  2
   INSTANCE: CUBE-1                                                                          
  CORRESPONDING RESIDUAL FORCE     -3.592E-05
 LARGEST INCREMENT OF DISP.        -3.715E-02   AT NODE          1   DOF  2
   INSTANCE: CUBE-1                                                                          
 LARGEST CORRECTION TO DISP.        4.142E-04   AT NODE          6   DOF  2
   INSTANCE: CUBE-1                                                                          
          FORCE     EQUILIBRIUM NOT ACHIEVED WITHIN TOLERANCE.

 AVERAGE MOMENT                     5.226E-02   TIME AVG. MOMENT      3.104E-02
 ALL MOMENT    RESIDUALS ARE ZERO
 LARGEST INCREMENT OF ROTATION     -5.228E-38   AT NODE          1   DOF  6
   INSTANCE: PROBE-1                                                                         
 LARGEST CORRECTION TO ROTATION    -4.742E-40   AT NODE          1   DOF  4
   INSTANCE: PROBE-1                                                                         
          THE MOMENT    EQUILIBRIUM EQUATIONS HAVE CONVERGED

 COMPATIBILITY ERRORS:
    TYPE                NUMBER EXCEEDING TOLERANCE  MAXIMUM ERROR        IN ELEMENT
 VOLUMETRIC                          0               -8.213E-08                  1
   INSTANCE: CUBE-1                                                                          
 
	SYMMETRIC NEW DIRECT SPARSE SOLVER RUNNING ON
 	1 HOST x 1 MPI RANK PER HOST x 2 THREADS PER RANK
        NUMBER OF EQUATIONS:  445
        NUMBER OF RHS:        1
        NUMBER OF FLOPS:      2.687e+06
        SOLVER ELAPSED TIME:  1ms

               CONVERGENCE CHECKS FOR EQUILIBRIUM ITERATION     3

   MAX. PENETRATION ERROR -342.828E-09   AT NODE CUBE-1.1 OF CONTACT PAIR 
   (ASSEMBLY_SURFACE-TOP,ASSEMBLY_PROBE-1_SURFACE-PROBE)
   MAX. CONTACT FORCE ERROR -3.10925E-06 AT NODE CUBE-1.1 OF CONTACT PAIR 
   (ASSEMBLY_SURFACE-TOP,ASSEMBLY_PROBE-1_SURFACE-PROBE)
          THE CONTACT CONSTRAINTS HAVE CONVERGED.

 AVERAGE FORCE                      4.960E-03   TIME AVG. FORCE       3.550E-03
 LARGEST SCALED RESIDUAL FORCE     -4.089E-06   AT NODE          1   DOF  2
   INSTANCE: CUBE-1                                                                          
  CORRESPONDING RESIDUAL FORCE     -4.089E-06
 LARGEST INCREMENT OF DISP.        -3.717E-02   AT NODE          1   DOF  2
   INSTANCE: CUBE-1                                                                          
 LARGEST CORRECTION TO DISP.        3.585E-05   AT NODE          6   DOF  2
   INSTANCE: CUBE-1                                                                          
          THE FORCE     EQUILIBRIUM EQUATIONS HAVE CONVERGED

 AVERAGE MOMENT                     5.225E-02   TIME AVG. MOMENT      3.104E-02
 ALL MOMENT    RESIDUALS ARE ZERO
 LARGEST INCREMENT OF ROTATION     -5.225E-38   AT NODE          1   DOF  6
   INSTANCE: PROBE-1                                                                         
 LARGEST CORRECTION TO ROTATION     2.805E-41   AT NODE          1   DOF  6
   INSTANCE: PROBE-1                                                                         
          THE MOMENT    EQUILIBRIUM EQUATIONS HAVE CONVERGED

 COMPATIBILITY ERRORS:
    TYPE                NUMBER EXCEEDING TOLERANCE  MAXIMUM ERROR        IN ELEMENT
 VOLUMETRIC                          0                8.578E-11                  2
   INSTANCE: CUBE-1                                                                          

 ITERATION SUMMARY FOR THE INCREMENT:   3 TOTAL ITERATIONS, OF WHICH
   0 ARE SEVERE DISCONTINUITY ITERATIONS AND  3 ARE EQUILIBRIUM ITERATIONS.

 TIME INCREMENT COMPLETED  5.000E-02,  FRACTION OF STEP COMPLETED   1.00    
 STEP TIME COMPLETED        1.00    ,  TOTAL TIME COMPLETED         1.00    


          THE ANALYSIS HAS BEEN COMPLETED



     ANALYSIS SUMMARY:
     TOTAL OF          7  INCREMENTS
                       0  CUTBACKS IN AUTOMATIC INCREMENTATION
                      15  ITERATIONS INCLUDING CONTACT ITERATIONS IF PRESENT
                      15  PASSES THROUGH THE EQUATION SOLVER OF WHICH 
                      15  INVOLVE MATRIX DECOMPOSITION, INCLUDING
                       0  DECOMPOSITION(S) OF THE MASS MATRIX
                       1  REORDERING OF EQUATIONS TO MINIMIZE WAVEFRONT
                       0  ADDITIONAL RESIDUAL EVALUATIONS FOR LINE SEARCHES
                       0  ADDITIONAL OPERATOR EVALUATIONS FOR LINE SEARCHES
                       1  WARNING MESSAGES DURING USER INPUT PROCESSING
                       1  WARNING MESSAGES DURING ANALYSIS
                       0  ANALYSIS WARNINGS ARE NUMERICAL PROBLEM MESSAGES
                       0  ANALYSIS WARNINGS ARE NEGATIVE EIGENVALUE MESSAGES
                       0  ERROR MESSAGES



     JOB TIME SUMMARY
       USER TIME (SEC)      =     0.35    
       SYSTEM TIME (SEC)    =     9.00E-02
       TOTAL CPU TIME (SEC) =     0.44    
       WALLCLOCK TIME (SEC) =            0
       MEMORY PEAK (GB)     =            3
