*Heading
** Job name: cube_indent Model name: Model-1
** Generated by: Abaqus/CAE 2024
*Preprint, echo=NO, model=NO, history=NO, contact=NO
**
** PARTS
**
*Part, name=cube
*Node
      1,           2.,           2.,           2.
      2,           2.,          1.5,           2.
      3,           2.,           1.,           2.
      4,           2.,          0.5,           2.
      5,           2.,           0.,           2.
      6,           2.,           2.,          1.5
      7,           2.,          1.5,          1.5
      8,           2.,           1.,          1.5
      9,           2.,          0.5,          1.5
     10,           2.,           0.,          1.5
     11,           2.,           2.,           1.
     12,           2.,          1.5,           1.
     13,           2.,           1.,           1.
     14,           2.,          0.5,           1.
     15,           2.,           0.,           1.
     16,           2.,           2.,          0.5
     17,           2.,          1.5,          0.5
     18,           2.,           1.,          0.5
     19,           2.,          0.5,          0.5
     20,           2.,           0.,          0.5
** ... 105 like lines cut
*Element, type=C3D8H
 1,  26,  27,  32,  31,   1,   2,   7,   6
 2,  27,  28,  33,  32,   2,   3,   8,   7
 3,  28,  29,  34,  33,   3,   4,   9,   8
 4,  29,  30,  35,  34,   4,   5,  10,   9
 5,  31,  32,  37,  36,   6,   7,  12,  11
 6,  32,  33,  38,  37,   7,   8,  13,  12
 7,  33,  34,  39,  38,   8,   9,  14,  13
 8,  34,  35,  40,  39,   9,  10,  15,  14
 9,  36,  37,  42,  41,  11,  12,  17,  16
10,  37,  38,  43,  42,  12,  13,  18,  17
11,  38,  39,  44,  43,  13,  14,  19,  18
12,  39,  40,  45,  44,  14,  15,  20,  19
13,  41,  42,  47,  46,  16,  17,  22,  21
14,  42,  43,  48,  47,  17,  18,  23,  22
15,  43,  44,  49,  48,  18,  19,  24,  23
16,  44,  45,  50,  49,  19,  20,  25,  24
17,  51,  52,  57,  56,  26,  27,  32,  31
18,  52,  53,  58,  57,  27,  28,  33,  32
19,  53,  54,  59,  58,  28,  29,  34,  33
20,  54,  55,  60,  59,  29,  30,  35,  34
** ... 44 like lines cut
*Nset, nset=Set-Cube, generate
   1,  125,    1
*Elset, elset=Set-Cube, generate
  1,  64,   1
** Section: SECTION_hyperelastic
*Solid Section, elset=Set-Cube, material=Material-Neo-Hooke
,
*End Part
**  
*Part, name=probe
*End Part
**  
**
** ASSEMBLY
**
*Assembly, name=Assembly
**  
*Instance, name=cube-1, part=cube
*End Instance
**  
*Instance, name=probe-1, part=probe
          2.,         2.75,           2.
*Node
      1, -9.18485073e-17,         -0.5,           0.
*Nset, nset=probe-1-RefPt_, internal
1, 
*Surface, type=REVOLUTION, name=SURFACE-Probe
START,          0.5,           0.
 CIRCL,           0.,         -0.5,           0.,           0.
*Rigid Body, ref node=probe-1-RefPt_, analytical surface=SURFACE-Probe
*End Instance
**  
*Nset, nset=Set-Bottom, instance=cube-1, generate
   5,  125,    5
*Elset, elset=Set-Bottom, instance=cube-1, generate
  4,  64,   4
*Nset, nset=Set-RP, instance=probe-1
 1,
*Nset, nset=Set-XSYMM, instance=cube-1, generate
  1,  25,   1
*Elset, elset=Set-XSYMM, instance=cube-1, generate
  1,  16,   1
*Nset, nset=Set-ZSYMM, instance=cube-1
   1,   2,   3,   4,   5,  26,  27,  28,  29,  30,  51,  52,  53,  54,  55,  76
  77,  78,  79,  80, 101, 102, 103, 104, 105
*Elset, elset=Set-ZSYMM, instance=cube-1
  1,  2,  3,  4, 17, 18, 19, 20, 33, 34, 35, 36, 49, 50, 51, 52
*Elset, elset=_SURFACE-Top_S6, internal, instance=cube-1, generate
  1,  61,   4
*Surface, type=ELEMENT, name=SURFACE-Top
_SURFACE-Top_S6, S6
*End Assembly
** 
** MATERIALS
** 
*Material, name=Material-1
*Elastic
1., 0.45
*Material, name=Material-Neo-Hooke
*Density
1.,
*Hyperelastic, neo hooke
1., 0.005
** 
** INTERACTION PROPERTIES
** 
*Surface Interaction, name=INTPROP-Frictionless
1.,
*Friction
0.,
*Surface Behavior, augmented Lagrange
** 
** INTERACTIONS
** 
** Interaction: INTERACTION-Contact
*Contact Pair, interaction=INTPROP-Frictionless, type=SURFACE TO SURFACE
SURFACE-Top, probe-1.SURFACE-Probe
** ----------------------------------------------------------------
** 
** STEP: indentation
** 
*Step, name=indentation, nlgeom=YES
*Static
0.1, 1., 1e-05, 0.2
** 
** BOUNDARY CONDITIONS
** 
** Name: BC-Fix Type: Symmetry/Antisymmetry/Encastre
*Boundary
Set-Bottom, ENCASTRE
** Name: BC-ProbeDisplacement Type: Displacement/Rotation
*Boundary
Set-RP, 1, 1
Set-RP, 2, 2, -0.5
Set-RP, 3, 3
Set-RP, 4, 4
Set-RP, 5, 5
Set-RP, 6, 6
** Name: BC-XSYMM Type: Symmetry/Antisymmetry/Encastre
*Boundary
Set-XSYMM, XSYMM
** Name: BC-ZSYMM Type: Symmetry/Antisymmetry/Encastre
*Boundary
Set-ZSYMM, ZSYMM
** 
** OUTPUT REQUESTS
** 
*Restart, write, frequency=0
** 
** FIELD OUTPUT: F-Output-1
** 
*Output, field, variable=PRESELECT
** 
** HISTORY OUTPUT: H-Output-1
** 
*Output, history, variable=PRESELECT
*End Step
