 Abaqus/Standard 2024                  DATE 13-Mar-2026 TIME 12:28:27
 SUMMARY OF JOB INFORMATION:
 STEP  INC ATT SEVERE EQUIL TOTAL  TOTAL      STEP       INC OF       DOF    IF
               DISCON ITERS ITERS  TIME/    TIME/LPF    TIME/LPF    MONITOR RIKS
               ITERS               FREQ
   1     1   1     0     1     1  0.100      0.100      0.1000    
   1     2   1     0     1     1  0.200      0.200      0.1000    
   1     3   1     0     1     1  0.350      0.350      0.1500    
   1     4   1     0     1     1  0.550      0.550      0.2000    
   1     5   1     1     3     4  0.750      0.750      0.2000    
   1     6   1     0     4     4  0.950      0.950      0.2000    
   1     7   1     0     3     3  1.00       1.00       0.05000   
                          
 THE ANALYSIS HAS COMPLETED SUCCESSFULLY
