1

   Abaqus 2024                                  Date 13-Mar-2026   Time 12:28:25
   For use by Supplied by Team-SolidSQUAD under license from Dassault Systemes or its subsidiary.



                         The Abaqus Software is a product of:

                           Dassault Systemes SIMULIA Corp.
                           1301 Atwood Avenue, Suite 101W
                              Johnston, RI 02919, USA
 


                   The Abaqus Software is available only under license
                   from Dassault Systemes or its subsidiary and may be
                   used or reproduced only in accordance with the terms
                   of such license.
 
                          On machine nexus 
                          you are authorized to run
                          Abaqus/Standard until 31-Dec-2055

                          Your site id is:  


 
                    For assistance or any other information you may
                    obtain contact information for your local office
                    from the world wide web at:

                      https://www.3ds.com/products-services/simulia/services-support/

 
                * * * * * * * * * * * * * * * * * * * * * * * * * * * * * * 
                *                                                         * 
                *                   *****************                     * 
                *                   *  N O T I C E  *                     * 
                *                   *****************                     * 
                *                                                         * 
                *                                                         * 
                *                       Abaqus 2024                       * 
                *                                                         * 
                *       BUILD ID: 2023_09_21-13.55.25 RELr426 190762      * 
                *                                                         * 
                *                                                         * 
                *  Please make sure you are using                         * 
                *  release Abaqus 2024 manuals                            * 
                *  plus the notes accompanying this release.              * 
                *                                                         * 
                *                                                         * 
                *                                                         * 
                *                                                         * 
                * * * * * * * * * * * * * * * * * * * * * * * * * * * * * * 


 



     PROCESSING PART, INSTANCE, AND ASSEMBLY INFORMATION
   *******************************************************


     END PROCESSING PART, INSTANCE, AND ASSEMBLY INFORMATION
   ***********************************************************




     OPTIONS BEING PROCESSED
   ***************************


  *Heading
  *Element, type=C3D8H
  *Elset, elset=ASSEMBLY_CUBE-1_SET-CUBE
  *Elset, elset=ASSEMBLY_SET-BOTTOM
  *Elset, elset=ASSEMBLY_SET-XSYMM
  *Elset, elset=ASSEMBLY_SET-ZSYMM
  *Elset, elset=ASSEMBLY__SURFACE-TOP_S6
  *material, name=MATERIAL-1
  *elastic
  *material, name=MATERIAL-NEO-HOOKE
  *density
  *hyperelastic, neohooke
  *solidsection, elset=ASSEMBLY_CUBE-1_SET-CUBE, material=MATERIAL-NEO-HOOKE
  *solidsection, elset=ASSEMBLY_CUBE-1_SET-CUBE, material=MATERIAL-NEO-HOOKE
  *rigidbody, refnode=ASSEMBLY_PROBE-1_PROBE-1-REFPT_, analyticalsurface=ASSEMBLY_PROBE-1_SURFACE-PROBE
  *contactpair, interaction=INTPROP-FRICTIONLESS, type=SURFACETOSURFACE
  *surface, type=REVOLUTION, name=ASSEMBLY_PROBE-1_SURFACE-PROBE
  *surface, type=ELEMENT, name=ASSEMBLY_SURFACE-TOP
  *rigidbody, refnode=ASSEMBLY_PROBE-1_PROBE-1-REFPT_, analyticalsurface=ASSEMBLY_PROBE-1_SURFACE-PROBE
  *rigidbody, refnode=ASSEMBLY_PROBE-1_PROBE-1-REFPT_, analyticalsurface=ASSEMBLY_PROBE-1_SURFACE-PROBE
  *rigidbody, refnode=ASSEMBLY_PROBE-1_PROBE-1-REFPT_, analyticalsurface=ASSEMBLY_PROBE-1_SURFACE-PROBE
  *contactpair, interaction=INTPROP-FRICTIONLESS, type=SURFACETOSURFACE
  *surface, type=REVOLUTION, name=ASSEMBLY_PROBE-1_SURFACE-PROBE
  *surface, type=ELEMENT, name=ASSEMBLY_SURFACE-TOP
  *surface, type=REVOLUTION, name=ASSEMBLY_PROBE-1_SURFACE-PROBE
  *surface, type=ELEMENT, name=ASSEMBLY_SURFACE-TOP
  *contactpair, interaction=INTPROP-FRICTIONLESS, type=SURFACETOSURFACE
  *surfaceinteraction, name=INTPROP-FRICTIONLESS
  *surfacebehavior, augmentedlagrange
  *contactpair, interaction=INTPROP-FRICTIONLESS, type=SURFACETOSURFACE
  *contactpair, interaction=INTPROP-FRICTIONLESS, type=SURFACETOSURFACE
  *rigidbody, refnode=ASSEMBLY_PROBE-1_PROBE-1-REFPT_, analyticalsurface=ASSEMBLY_PROBE-1_SURFACE-PROBE
  *surfaceinteraction, name=INTPROP-FRICTIONLESS
  *friction
  *surfacebehavior, augmentedlagrange
  *surfaceinteraction, name=INTPROP-FRICTIONLESS
  *rigidbody, refnode=ASSEMBLY_PROBE-1_PROBE-1-REFPT_, analyticalsurface=ASSEMBLY_PROBE-1_SURFACE-PROBE
  *rigidbody, refnode=ASSEMBLY_PROBE-1_PROBE-1-REFPT_, analyticalsurface=ASSEMBLY_PROBE-1_SURFACE-PROBE
  *boundary
  *boundary
  *boundary
  *boundary
  *boundary
  *boundary
  *boundary
  *boundary
  *contactpair, interaction=INTPROP-FRICTIONLESS, type=SURFACETOSURFACE

 ***WARNING: PATH BASED TRACKING IS DEFINED IN CONTACT PAIR 
             (ASSEMBLY_SURFACE-TOP,ASSEMBLY_PROBE-1_SURFACE-PROBE). PATH BASED 
             TRACKING CANNOT BE USED WITH ANALYTICAL RIGID MAIN SURFACES, THE 
             STATE BASED TRACKING ALGORITHM WILL BE USED INSTEAD.
 
   TRACKING LOAD BALANCE
       ASSEMBLY_SURFACE-TOP / ASSEMBLY_PROBE-1_SURFACE-PROBE
      THREAD 1:  8 FACETS
      THREAD 2:  8 FACETS
 
  *surfaceinteraction, name=INTPROP-FRICTIONLESS
  *contactpair, interaction=INTPROP-FRICTIONLESS, type=SURFACETOSURFACE
  *rigidbody, refnode=ASSEMBLY_PROBE-1_PROBE-1-REFPT_, analyticalsurface=ASSEMBLY_PROBE-1_SURFACE-PROBE
  *surface, type=REVOLUTION, name=ASSEMBLY_PROBE-1_SURFACE-PROBE
  *surface, type=ELEMENT, name=ASSEMBLY_SURFACE-TOP
  *output, field, variable=PRESELECT
  *output, history, variable=PRESELECT
  *output, field, variable=PRESELECT
  *output, history, variable=PRESELECT
  *output, field, variable=PRESELECT
  *output, history, variable=PRESELECT
 
      ELEMENT CONSTRUCTION EXECUTED IN PARALLEL USING 2 THREADS
 
      ELEMENT GEOMETRY CALCULATIONS EXECUTED IN PARALLEL USING 2 THREADS
  *Step, name=indentation, nlgeom=YES
  *output, field, variable=PRESELECT
  *output, history, variable=PRESELECT
  *Step, name=indentation, nlgeom=YES
  *Step, name=indentation, nlgeom=YES
  *static
  *boundary
  *boundary
  *boundary
  *boundary
  *output, field, variable=PRESELECT
  *output, history, variable=PRESELECT
  *endstep
  *Step, name=indentation, nlgeom=YES
  *static
  *boundary
  *boundary
  *boundary
  *boundary
  *endstep



                            P R O B L E M   S I Z E


          NUMBER OF ELEMENTS IS                                   129
          NUMBER OF ELEMENTS DEFINED BY THE USER AND *TIE          64
          NUMBER OF INTERNAL ELEMENTS GENERATED FOR CONTACT        64
          NUMBER OF NODES IS                                      318
          NUMBER OF NODES DEFINED BY THE USER                     126
          NUMBER OF INTERNAL NODES GENERATED BY THE PROGRAM       192
          TOTAL NUMBER OF VARIABLES IN THE MODEL                  637
          (DEGREES OF FREEDOM PLUS MAX NO. OF ANY LAGRANGE MULTIPLIER
           VARIABLES. INCLUDE *PRINT,SOLVE=YES TO GET THE ACTUAL NUMBER.)



                              END OF USER INPUT PROCESSING



     JOB TIME SUMMARY
       USER TIME (SEC)      =     0.15    
       SYSTEM TIME (SEC)    =     3.00E-02
       TOTAL CPU TIME (SEC) =     0.18    
       WALLCLOCK TIME (SEC) =            1
1

   Abaqus 2024                                  Date 13-Mar-2026   Time 12:28:27
   For use by Supplied by Team-SolidSQUAD under license from Dassault Systemes or its subsidiary.

                                                                                               STEP    1  INCREMENT    1
                                                                                          TIME COMPLETED IN THIS STEP   0.00    


                        S T E P       1     S T A T I C   A N A L Y S I S


                                                                                          

     AUTOMATIC TIME CONTROL WITH -
          A SUGGESTED INITIAL TIME INCREMENT OF                0.100    
          AND A TOTAL TIME PERIOD OF                            1.00    
          THE MINIMUM TIME INCREMENT ALLOWED IS                1.000E-05
          THE MAXIMUM TIME INCREMENT ALLOWED IS                0.200    

     LINEAR EQUATION SOLVER TYPE         DIRECT SPARSE

          LARGE DISPLACEMENT THEORY WILL BE USED
  
                   M E M O R Y   E S T I M A T E
  
 PROCESS      FLOATING PT       MINIMUM MEMORY        MEMORY TO
              OPERATIONS           REQUIRED          MINIMIZE I/O
             PER ITERATION           (MB)               (MB)
  
     1          2.66E+06               17                 24
  
 NOTE:
      (1) SINCE ABAQUS DOES NOT PRE-ALLOCATE MEMORY AND ONLY ALLOCATES MEMORY AS NEEDED DURING THE ANALYSIS,
          THE MEMORY REQUIREMENT PRINTED HERE CAN ONLY BE VIEWED AS A GENERAL GUIDELINE BASED ON THE BEST
          KNOWLEDGE AVAILABLE AT THE BEGINNING OF A STEP BEFORE THE SOLUTION PROCESS HAS BEGUN.
      (2) THE ESTIMATE IS NORMALLY UPDATED AT THE BEGINNING OF EVERY STEP. IT IS THE MAXIMUM VALUE OF THE
          ESTIMATE FROM THE CURRENT STEP TO THE LAST STEP OF THE ANALYSIS, WITH UNSYMMETRIC SOLUTION TAKEN
          INTO ACCOUNT IF APPLICABLE. 
      (3) SINCE THE ESTIMATE IS BASED ON THE ACTIVE DEGREES OF FREEDOM IN THE FIRST ITERATION OF THE 
          CURRENT STEP, THE MEMORY ESTIMATE MIGHT BE SIGNIFICANTLY DIFFERENT THAN ACTUAL USAGE FOR 
          PROBLEMS WITH SUBSTANTIAL CHANGES IN ACTIVE DEGREES OF FREEDOM BETWEEN STEPS (OR EVEN WITHIN
          THE SAME STEP). EXAMPLES ARE: PROBLEMS WITH SIGNIFICANT CONTACT CHANGES, PROBLEMS WITH MODEL
          CHANGE, PROBLEMS WITH BOTH STATIC STEP AND STEADY STATE DYNAMIC PROCEDURES WHERE ACOUSTIC 
          ELEMENTS WILL ONLY BE ACTIVATED IN THE STEADY STATE DYNAMIC STEPS.
      (4) FOR MULTI-PROCESS EXECUTION, THE ESTIMATED VALUE OF FLOATING POINT OPERATIONS FOR EACH PROCESS
          IS BASED ON AN INITIAL SCHEDULING OF OPERATIONS AND MIGHT NOT REFLECT THE ACTUAL FLOATING 
          POINT OPERATIONS COMPLETED ON EACH PROCESS. OPERATIONS ARE DYNAMICALLY BALANCED DURING EXECUTION, 
          SO THE ACTUAL BALANCE OF OPERATIONS BETWEEN PROCESSES IS EXPECTED TO BE BETTER THAN THE ESTIMATE
          PRINTED HERE.
      (5) THE UPPER LIMIT OF MEMORY THAT CAN BE ALLOCATED BY ABAQUS WILL IN GENERAL DEPEND ON THE VALUE OF
          THE "MEMORY" PARAMETER AND THE AMOUNT OF PHYSICAL MEMORY AVAILABLE ON THE MACHINE. PLEASE SEE
          THE "ABAQUS ANALYSIS USER'S MANUAL" FOR MORE DETAILS. THE ACTUAL USAGE OF MEMORY AND OF DISK
          SPACE FOR SCRATCH DATA WILL DEPEND ON THIS UPPER LIMIT AS WELL AS THE MEMORY REQUIRED TO MINIMIZE
          I/O. IF THE MEMORY UPPER LIMIT IS GREATER THAN THE MEMORY REQUIRED TO MINIMIZE I/O, THEN THE ACTUAL
          MEMORY USAGE WILL BE CLOSE TO THE ESTIMATED "MEMORY TO MINIMIZE I/O" VALUE, AND THE SCRATCH DISK
          USAGE WILL BE CLOSE-TO-ZERO; OTHERWISE, THE ACTUAL MEMORY USED WILL BE CLOSE TO THE PREVIOUSLY
          MENTIONED MEMORY LIMIT, AND THE SCRATCH DISK USAGE WILL BE ROUGHLY PROPORTIONAL TO THE DIFFERENCE
          BETWEEN THE ESTIMATED "MEMORY TO MINIMIZE I/O" AND THE MEMORY UPPER LIMIT. HOWEVER ACCURATE
          ESTIMATE OF THE SCRATCH DISK SPACE IS NOT POSSIBLE.
      (6) USING "*RESTART, WRITE" CAN GENERATE A LARGE AMOUNT OF DATA WRITTEN IN THE WORK DIRECTORY.


          THE ANALYSIS HAS BEEN COMPLETED



                              ANALYSIS COMPLETE
                              WITH      1 WARNING MESSAGES ON THE DAT FILE
                              AND       1 WARNING MESSAGES ON THE MSG FILE



     JOB TIME SUMMARY
       USER TIME (SEC)      =     0.35    
       SYSTEM TIME (SEC)    =     9.00E-02
       TOTAL CPU TIME (SEC) =     0.44    
       WALLCLOCK TIME (SEC) =            0
