1

   Abaqus 2024                                  Date 27-Feb-2026   Time 20:20:07
   For use by Supplied by Team-SolidSQUAD under license from Dassault Systemes or its subsidiary.

 Sample UEL usage                                                                
                                                                                 
 STEP    1     INCREMENT     1     STEP TIME    0.00    


                        S T E P       1     C O U P L E D - T E M P E R A T U R E - D I S P L A C E M E N T   A N A L Y S I S


                                                                                          

     AUTOMATIC TIME CONTROL WITH -
          A SUGGESTED INITIAL TIME INCREMENT OF                0.100    
          AND A TOTAL TIME PERIOD OF                            900.    
          THE MINIMUM TIME INCREMENT ALLOWED IS                1.000E-06
          THE MAXIMUM TIME INCREMENT ALLOWED IS                 100.    

          CREEP AND SWELLING EFFECTS ARE OMITTED IN THIS STEP

     THE SIZE OF THE TIME INCREMENT IS CONTROLLED BY -
          THE TEMPERATURE CHANGE PER INCREMENT NOT EXCEEDING            100.    
          THE RATE DEPENDENCY WILL BE CONSIDERED IN THIS STEP

          CREEP AND SWELLING EFFECTS WILL BE IGNORED.

 CONVERGENCE TOLERANCE PARAMETERS FOR FORCE    
     CRITERION FOR RESIDUAL FORCE     FOR A NONLINEAR PROBLEM          5.000E-03
     CRITERION FOR DISP.    CORRECTION IN A NONLINEAR PROBLEM          1.000E-02
     INITIAL VALUE OF TIME AVERAGE FORCE                               1.000E-02
     AVERAGE FORCE     IS TIME AVERAGE FORCE    
     ALTERNATE CRIT. FOR RESIDUAL FORCE     FOR A NONLINEAR PROBLEM    2.000E-02
     CRITERION FOR ZERO FORCE     RELATIVE TO TIME AVRG. FORCE         1.000E-05
     CRITERION FOR RESIDUAL FORCE     WHEN THERE IS ZERO FLUX          1.000E-05
     CRITERION FOR DISP.    CORRECTION WHEN THERE IS ZERO FLUX         1.000E-03
     CRITERION FOR RESIDUAL FORCE     FOR A LINEAR INCREMENT           1.000E-08
     FIELD CONVERSION RATIO                                             1.00    
     CRITERION FOR ZERO FORCE     REL. TO TIME AVRG. MAX. FORCE        1.000E-05
     CRITERION FOR ZERO DISP.    RELATIVE TO CHARACTERISTIC LENGTH     1.000E-08

 CONVERGENCE TOLERANCE PARAMETERS FOR HEAT FLUX
     CRITERION FOR RESIDUAL HEAT FLUX FOR A NONLINEAR PROBLEM          5.000E-03
     CRITERION FOR TEMP.    CORRECTION IN A NONLINEAR PROBLEM          1.000E-02
     INITIAL VALUE OF TIME AVERAGE HEAT FLUX                           1.000E-02
     AVERAGE HEAT FLUX IS TIME AVERAGE HEAT FLUX
     ALTERNATE CRIT. FOR RESIDUAL HEAT FLUX FOR A NONLINEAR PROBLEM    2.000E-02
     CRITERION FOR ZERO HEAT FLUX RELATIVE TO TIME AVRG. HEAT FLUX     1.000E-05
     CRITERION FOR RESIDUAL HEAT FLUX WHEN THERE IS ZERO FLUX          1.000E-05
     CRITERION FOR TEMP.    CORRECTION WHEN THERE IS ZERO FLUX         1.000E-03
     CRITERION FOR RESIDUAL HEAT FLUX FOR A LINEAR INCREMENT           1.000E-08
     FIELD CONVERSION RATIO                                             1.00    
     CRITERION FOR ZERO HEAT FLUX REL. TO TIME AVRG. MAX. HEAT FLUX    1.000E-05

     VOLUMETRIC STRAIN COMPATIBILITY TOLERANCE FOR HYBRID SOLIDS       1.000E-05
     AXIAL STRAIN COMPATIBILITY TOLERANCE FOR HYBRID BEAMS             1.000E-05
     TRANS. SHEAR STRAIN COMPATIBILITY TOLERANCE FOR HYBRID BEAMS      1.000E-05
     SOFT CONTACT CONSTRAINT COMPATIBILITY TOLERANCE FOR P>P0          5.000E-03
     SOFT CONTACT CONSTRAINT COMPATIBILITY TOLERANCE FOR P=0.0         0.100    
     CONTACT FORCE ERROR TOLERANCE FOR CONVERT SDI=YES                 1.00    
     DISPLACEMENT COMPATIBILITY TOLERANCE FOR DCOUP ELEMENTS           1.000E-05
     ROTATION COMPATIBILITY TOLERANCE FOR DCOUP ELEMENTS               1.000E-05

 EQUILIBRIUM WILL BE CHECKED FOR SEVERE DISCONTINUITY ITERATIONS

 TIME INCREMENTATION CONTROL PARAMETERS:
     FIRST EQUILIBRIUM ITERATION FOR CONSECUTIVE DIVERGENCE CHECK              4
     EQUILIBRIUM ITERATION AT WHICH LOG. CONVERGENCE RATE CHECK BEGINS         8
     EQUILIBRIUM ITERATION AFTER WHICH ALTERNATE RESIDUAL IS USED              9
     MAXIMUM EQUILIBRIUM ITERATIONS ALLOWED                                   16
     EQUILIBRIUM ITERATION COUNT FOR CUT-BACK IN NEXT INCREMENT               10
     MAXIMUM EQUILIB. ITERS IN TWO INCREMENTS FOR TIME INCREMENT INCREASE      4
     MAXIMUM ITERATIONS FOR SEVERE DISCONTINUITIES                            50
     MAXIMUM ATTEMPTS ALLOWED IN AN INCREMENT                                  5
     MAXIMUM DISCON. ITERS IN TWO INCREMENTS FOR TIME INCREMENT INCREASE      50
     MAXIMUM CONTACT AUGMENTATIONS FOR *SURFACE BEHAVIOR,AUGMENTED LAGRANGE   50
     CONSECUTIVE INCS MEETING TIME INTEG. TOL. FOR TIME INC. INCREASE          3
     CUT-BACK FACTOR AFTER DIVERGENCE                                 0.2500    
     CUT-BACK FACTOR FOR TOO SLOW CONVERGENCE                         0.5000    
     CUT-BACK FACTOR AFTER TOO MANY EQUILIBRIUM ITERATIONS            0.7500    
     CUT-BACK FACTOR AFTER TOO MANY SEVERE DISCONTINUITY ITERATIONS   0.2500    
     CUT-BACK FACTOR AFTER PROBLEMS IN ELEMENT ASSEMBLY               0.2500    
     INCREASE FACTOR AFTER TWO INCREMENTS THAT CONVERGE QUICKLY        1.500    
     MAX. TIME INCREMENT INCREASE FACTOR ALLOWED                       1.500    
     MAX. TIME INCREMENT INCREASE FACTOR ALLOWED (DYNAMICS)            1.250    
     MAX. TIME INCREMENT INCREASE FACTOR ALLOWED (DIFFUSION)           2.000    
     MINIMUM TIME INCREMENT RATIO FOR EXTRAPOLATION TO OCCUR          0.1000    
     CUT-BACK FACTOR WHEN TIME INTEGRATION ACCURACY TOL. EXCEEDED     0.8500    
     MAX. RATIO OF TIME INTEG. MEASURE TO TOL. FOR TIME INC. INCREASE 0.7500    
     INCREASE FACTOR FOR TIME INCREMENT WHEN POSSIBLE                 0.8000    
     MIN. TIME INC. INCREASE FACTOR IN LINEAR TRANSIENT PROBLEMS      0.9500    
     MAX. RATIO OF TIME INCREMENT TO STABILITY LIMIT                   1.000    
     FRACTION OF STABILITY LIMIT FOR NEW TIME INCREMENT               0.9500    
     TIME INCREMENT INCREASE FACTOR BEFORE A TIME POINT                1.000    
     GLOBAL STABILIZATION CONTROL IS NOT USED

          PRINT OF INCREMENT NUMBER, TIME, ETC., EVERY    1  INCREMENTS

     THE MAXIMUM NUMBER OF INCREMENTS IN THIS STEP IS                   50000

          LARGE DISPLACEMENT THEORY WILL BE USED

          UNSYMMETRIC MATRIX STORAGE AND SOLUTION WILL BE USED

     LINEAR EXTRAPOLATION WILL BE USED

     CHARACTERISTIC ELEMENT LENGTH     0.500    

     DETAILS REGARDING ACTUAL SOLUTION WAVEFRONT REQUESTED

     DETAILED OUTPUT OF DIAGNOSTICS TO DATABASE REQUESTED

     PRINT OF INCREMENT NUMBER, TIME, ETC., TO THE MESSAGE FILE EVERY     1  INCREMENTS

     COLLECTING MODEL CONSTRAINT INFORMATION FOR OVERCONSTRAINT CHECKS

     COLLECTING STEP CONSTRAINT INFORMATION FOR OVERCONSTRAINT CHECKS


  INCREMENT     1 STARTS. ATTEMPT NUMBER  1, TIME INCREMENT  0.100    

 ***WARNING: THERE ARE 2 UNCONNECTED REGIONS IN THE MODEL.

 ***NOTE: SFM TYPE SURFACE ELEMENTS USED TO DEFINE CONTACT SURFACES NOT PART OF 
          A RIGID BODY MAY INCREASE THE NUMBER OR UNCONNECTED REGIONS REPORTED.
 
	UNSYMMETRIC NEW DIRECT SPARSE SOLVER RUNNING ON
 	1 HOST x 1 MPI RANK PER HOST x 1 THREAD PER RANK
        NUMBER OF EQUATIONS:  64
        NUMBER OF RHS:        1
        NUMBER OF FLOPS:      4.378e+04
        SOLVER ELAPSED TIME:  4ms

               CONVERGENCE CHECKS FOR EQUILIBRIUM ITERATION     1


 AVERAGE FORCE                      9.892E-05   TIME AVG. FORCE       9.892E-05
 LARGEST SCALED RESIDUAL FORCE      3.982E-04   AT NODE          3   DOF  2
  CORRESPONDING RESIDUAL FORCE      3.982E-04
 LARGEST INCREMENT OF DISP.         5.564E-04   AT NODE          2   DOF  1
 LARGEST CORRECTION TO DISP.        5.564E-04   AT NODE          2   DOF  1
          FORCE     EQUILIBRIUM NOT ACHIEVED WITHIN TOLERANCE.

 AVERAGE HEAT FLUX                  6.630E-03   TIME AVG. HEAT FLUX   6.630E-03
 LARGEST RESIDUAL HEAT FLUX        -1.174E-04   AT NODE          6   DOF 11
 LARGEST INCREMENT OF TEMP.         -15.2       AT NODE          7   DOF 11
 LARGEST CORRECTION TO TEMP.        -15.2       AT NODE          7   DOF 11
          HEAT FLUX EQUILIBRIUM NOT ACHIEVED WITHIN TOLERANCE.
 
	UNSYMMETRIC NEW DIRECT SPARSE SOLVER RUNNING ON
 	1 HOST x 1 MPI RANK PER HOST x 1 THREAD PER RANK
        NUMBER OF EQUATIONS:  64
        NUMBER OF RHS:        1
        NUMBER OF FLOPS:      4.378e+04
        SOLVER ELAPSED TIME:  0ms

               CONVERGENCE CHECKS FOR EQUILIBRIUM ITERATION     2


 AVERAGE FORCE                      3.819E-05   TIME AVG. FORCE       3.819E-05
 LARGEST SCALED RESIDUAL FORCE      7.195E-06   AT NODE          8   DOF  3
  CORRESPONDING RESIDUAL FORCE      7.195E-06
 LARGEST INCREMENT OF DISP.         6.103E-04   AT NODE          3   DOF  2
 LARGEST CORRECTION TO DISP.       -1.108E-04   AT NODE          3   DOF  1
          FORCE     EQUILIBRIUM NOT ACHIEVED WITHIN TOLERANCE.

 AVERAGE HEAT FLUX                  6.587E-03   TIME AVG. HEAT FLUX   6.587E-03
 LARGEST RESIDUAL HEAT FLUX        -1.256E-06   AT NODE          7   DOF 11
 LARGEST INCREMENT OF TEMP.         -15.2       AT NODE          7   DOF 11
 LARGEST CORRECTION TO TEMP.       -3.478E-02   AT NODE          7   DOF 11
          THE HEAT FLUX EQUILIBRIUM EQUATIONS HAVE CONVERGED
 
	UNSYMMETRIC NEW DIRECT SPARSE SOLVER RUNNING ON
 	1 HOST x 1 MPI RANK PER HOST x 1 THREAD PER RANK
        NUMBER OF EQUATIONS:  64
        NUMBER OF RHS:        1
        NUMBER OF FLOPS:      4.378e+04
        SOLVER ELAPSED TIME:  0ms

               CONVERGENCE CHECKS FOR EQUILIBRIUM ITERATION     3


 AVERAGE FORCE                      3.789E-05   TIME AVG. FORCE       3.789E-05
 LARGEST SCALED RESIDUAL FORCE      6.767E-08   AT NODE          4   DOF  3
  CORRESPONDING RESIDUAL FORCE      6.767E-08
 LARGEST INCREMENT OF DISP.         6.089E-04   AT NODE          3   DOF  2
 LARGEST CORRECTION TO DISP.        3.451E-06   AT NODE          8   DOF  3
          THE FORCE     EQUILIBRIUM EQUATIONS HAVE CONVERGED

 AVERAGE HEAT FLUX                  6.587E-03   TIME AVG. HEAT FLUX   6.587E-03
 LARGEST RESIDUAL HEAT FLUX         1.514E-08   AT NODE          7   DOF 11
 LARGEST INCREMENT OF TEMP.         -15.2       AT NODE          7   DOF 11
 LARGEST CORRECTION TO TEMP.       -4.602E-04   AT NODE          7   DOF 11
          THE HEAT FLUX EQUILIBRIUM EQUATIONS HAVE CONVERGED

 MAXIMUM NON-PRESCRIBED INCREMENT IN TEMPERATURE IS   -15.2    

 ITERATION SUMMARY FOR THE INCREMENT:   3 TOTAL ITERATIONS, OF WHICH
   0 ARE SEVERE DISCONTINUITY ITERATIONS AND  3 ARE EQUILIBRIUM ITERATIONS.

 TIME INCREMENT COMPLETED  0.100    ,  FRACTION OF STEP COMPLETED  1.111E-04
 STEP TIME COMPLETED       0.100    ,  TOTAL TIME COMPLETED        0.100    


  INCREMENT     2 STARTS. ATTEMPT NUMBER  1, TIME INCREMENT  0.100    
 
	UNSYMMETRIC NEW DIRECT SPARSE SOLVER RUNNING ON
 	1 HOST x 1 MPI RANK PER HOST x 1 THREAD PER RANK
        NUMBER OF EQUATIONS:  64
        NUMBER OF RHS:        1
        NUMBER OF FLOPS:      4.378e+04
        SOLVER ELAPSED TIME:  0ms

               CONVERGENCE CHECKS FOR EQUILIBRIUM ITERATION     1


 AVERAGE FORCE                      7.850E-04   TIME AVG. FORCE       4.114E-04
 LARGEST SCALED RESIDUAL FORCE     -8.214E-04   AT NODE          7   DOF  3
  CORRESPONDING RESIDUAL FORCE     -8.214E-04
 LARGEST INCREMENT OF DISP.        -3.681E-05   AT NODE          3   DOF  1
 LARGEST CORRECTION TO DISP.       -5.888E-04   AT NODE          3   DOF  2
          FORCE     EQUILIBRIUM NOT ACHIEVED WITHIN TOLERANCE.

 AVERAGE HEAT FLUX                  2.910E-04   TIME AVG. HEAT FLUX   3.439E-03
 LARGEST RESIDUAL HEAT FLUX        -2.464E-04   AT NODE          5   DOF 11
 LARGEST INCREMENT OF TEMP.         -2.74       AT NODE          6   DOF 11
 LARGEST CORRECTION TO TEMP.         12.5       AT NODE          7   DOF 11
          HEAT FLUX EQUILIBRIUM NOT ACHIEVED WITHIN TOLERANCE.
 
	UNSYMMETRIC NEW DIRECT SPARSE SOLVER RUNNING ON
 	1 HOST x 1 MPI RANK PER HOST x 1 THREAD PER RANK
        NUMBER OF EQUATIONS:  64
        NUMBER OF RHS:        1
        NUMBER OF FLOPS:      4.378e+04
        SOLVER ELAPSED TIME:  0ms

               CONVERGENCE CHECKS FOR EQUILIBRIUM ITERATION     2


 AVERAGE FORCE                      1.096E-04   TIME AVG. FORCE       7.376E-05
 LARGEST SCALED RESIDUAL FORCE      1.437E-06   AT NODE          3   DOF  3
  CORRESPONDING RESIDUAL FORCE      1.437E-06
 LARGEST INCREMENT OF DISP.         1.312E-05   AT NODE          3   DOF  1
 LARGEST CORRECTION TO DISP.        4.993E-05   AT NODE          3   DOF  1
          FORCE     EQUILIBRIUM NOT ACHIEVED WITHIN TOLERANCE.

 AVERAGE HEAT FLUX                  2.603E-04   TIME AVG. HEAT FLUX   3.423E-03
 LARGEST RESIDUAL HEAT FLUX        -2.637E-08   AT NODE          7   DOF 11
 LARGEST INCREMENT OF TEMP.         -2.82       AT NODE          6   DOF 11
 LARGEST CORRECTION TO TEMP.       -7.314E-02   AT NODE          5   DOF 11
 ESTIMATE OF TEMP.    CORRECTION   -7.827E-06
 HEAT FLUX EQUILIB. ACCEPTED BASED ON SMALL RESIDUAL AND ESTIMATED CORRECTION
 
	UNSYMMETRIC NEW DIRECT SPARSE SOLVER RUNNING ON
 	1 HOST x 1 MPI RANK PER HOST x 1 THREAD PER RANK
        NUMBER OF EQUATIONS:  64
        NUMBER OF RHS:        1
        NUMBER OF FLOPS:      4.378e+04
        SOLVER ELAPSED TIME:  0ms

               CONVERGENCE CHECKS FOR EQUILIBRIUM ITERATION     3


 AVERAGE FORCE                      2.183E-04   TIME AVG. FORCE       1.281E-04
 LARGEST SCALED RESIDUAL FORCE      2.128E-09   AT NODE          2   DOF  1
  CORRESPONDING RESIDUAL FORCE      2.128E-09
 LARGEST INCREMENT OF DISP.         1.308E-05   AT NODE          3   DOF  1
 LARGEST CORRECTION TO DISP.       -2.240E-07   AT NODE          7   DOF  3
 ESTIMATE OF DISP.    CORRECTION   -3.317E-10
 FORCE     EQUILIB. ACCEPTED BASED ON SMALL RESIDUAL AND ESTIMATED CORRECTION

 AVERAGE HEAT FLUX                  2.603E-04   TIME AVG. HEAT FLUX   3.423E-03
 LARGEST RESIDUAL HEAT FLUX        -6.199E-11   AT NODE          7   DOF 11
 LARGEST INCREMENT OF TEMP.         -2.82       AT NODE          6   DOF 11
 LARGEST CORRECTION TO TEMP.       -8.429E-06   AT NODE          7   DOF 11
          THE HEAT FLUX EQUILIBRIUM EQUATIONS HAVE CONVERGED

 MAXIMUM NON-PRESCRIBED INCREMENT IN TEMPERATURE IS   -2.82    

 ITERATION SUMMARY FOR THE INCREMENT:   3 TOTAL ITERATIONS, OF WHICH
   0 ARE SEVERE DISCONTINUITY ITERATIONS AND  3 ARE EQUILIBRIUM ITERATIONS.

 TIME INCREMENT COMPLETED  0.100    ,  FRACTION OF STEP COMPLETED  2.222E-04
 STEP TIME COMPLETED       0.200    ,  TOTAL TIME COMPLETED        0.200    


  INCREMENT     3 STARTS. ATTEMPT NUMBER  1, TIME INCREMENT  0.100    
 
	UNSYMMETRIC NEW DIRECT SPARSE SOLVER RUNNING ON
 	1 HOST x 1 MPI RANK PER HOST x 1 THREAD PER RANK
        NUMBER OF EQUATIONS:  64
        NUMBER OF RHS:        1
        NUMBER OF FLOPS:      4.378e+04
        SOLVER ELAPSED TIME:  0ms

               CONVERGENCE CHECKS FOR EQUILIBRIUM ITERATION     1


 AVERAGE FORCE                      1.136E-04   TIME AVG. FORCE       1.233E-04
 LARGEST SCALED RESIDUAL FORCE     -3.276E-07   AT NODE          3   DOF  3
  CORRESPONDING RESIDUAL FORCE     -3.276E-07
 LARGEST INCREMENT OF DISP.        -1.274E-05   AT NODE          3   DOF  1
 LARGEST CORRECTION TO DISP.       -2.581E-05   AT NODE          3   DOF  1
 ESTIMATE OF DISP.    CORRECTION   -4.787E-08
 FORCE     EQUILIB. ACCEPTED BASED ON SMALL RESIDUAL AND ESTIMATED CORRECTION

 AVERAGE HEAT FLUX                  2.637E-04   TIME AVG. HEAT FLUX   2.370E-03
 LARGEST RESIDUAL HEAT FLUX        -2.727E-05   AT NODE          6   DOF 11
 LARGEST INCREMENT OF TEMP.         0.400       AT NODE          1   DOF 11
 LARGEST CORRECTION TO TEMP.         2.62       AT NODE          6   DOF 11
          HEAT FLUX EQUILIBRIUM NOT ACHIEVED WITHIN TOLERANCE.
 
	UNSYMMETRIC NEW DIRECT SPARSE SOLVER RUNNING ON
 	1 HOST x 1 MPI RANK PER HOST x 1 THREAD PER RANK
        NUMBER OF EQUATIONS:  64
        NUMBER OF RHS:        1
        NUMBER OF FLOPS:      4.378e+04
        SOLVER ELAPSED TIME:  0ms

               CONVERGENCE CHECKS FOR EQUILIBRIUM ITERATION     2


 AVERAGE FORCE                      1.434E-04   TIME AVG. FORCE       1.332E-04
 LARGEST SCALED RESIDUAL FORCE      2.602E-08   AT NODE          4   DOF  3
  CORRESPONDING RESIDUAL FORCE      2.602E-08
 LARGEST INCREMENT OF DISP.        -1.273E-05   AT NODE          3   DOF  1
 LARGEST CORRECTION TO DISP.       -9.233E-08   AT NODE          3   DOF  3
          THE FORCE     EQUILIBRIUM EQUATIONS HAVE CONVERGED

 AVERAGE HEAT FLUX                  2.535E-04   TIME AVG. HEAT FLUX   2.367E-03
 LARGEST RESIDUAL HEAT FLUX        -7.349E-11   AT NODE          5   DOF 11
 LARGEST INCREMENT OF TEMP.         0.400       AT NODE          1   DOF 11
 LARGEST CORRECTION TO TEMP.       -8.096E-03   AT NODE          8   DOF 11
 ESTIMATE OF TEMP.    CORRECTION   -2.181E-08
 HEAT FLUX EQUILIB. ACCEPTED BASED ON SMALL RESIDUAL AND ESTIMATED CORRECTION

 MAXIMUM NON-PRESCRIBED INCREMENT IN TEMPERATURE IS  -0.200    
          TIME INCREMENT MAY NOW INCREASE TO    0.150    

 ITERATION SUMMARY FOR THE INCREMENT:   2 TOTAL ITERATIONS, OF WHICH
   0 ARE SEVERE DISCONTINUITY ITERATIONS AND  2 ARE EQUILIBRIUM ITERATIONS.

 TIME INCREMENT COMPLETED  0.100    ,  FRACTION OF STEP COMPLETED  3.333E-04
 STEP TIME COMPLETED       0.300    ,  TOTAL TIME COMPLETED        0.300    


  INCREMENT     4 STARTS. ATTEMPT NUMBER  1, TIME INCREMENT  0.150    
 
	UNSYMMETRIC NEW DIRECT SPARSE SOLVER RUNNING ON
 	1 HOST x 1 MPI RANK PER HOST x 1 THREAD PER RANK
        NUMBER OF EQUATIONS:  64
        NUMBER OF RHS:        1
        NUMBER OF FLOPS:      4.378e+04
        SOLVER ELAPSED TIME:  0ms

               CONVERGENCE CHECKS FOR EQUILIBRIUM ITERATION     1


 AVERAGE FORCE                      2.402E-04   TIME AVG. FORCE       1.600E-04
 LARGEST SCALED RESIDUAL FORCE      1.255E-09   AT NODE          7   DOF  2
  CORRESPONDING RESIDUAL FORCE      1.255E-09
 LARGEST INCREMENT OF DISP.        -1.926E-05   AT NODE          3   DOF  1
 LARGEST CORRECTION TO DISP.       -1.588E-07   AT NODE          3   DOF  1
          THE FORCE     EQUILIBRIUM EQUATIONS HAVE CONVERGED

 AVERAGE HEAT FLUX                  1.014E-03   TIME AVG. HEAT FLUX   2.029E-03
 LARGEST RESIDUAL HEAT FLUX        -6.378E-11   AT NODE          7   DOF 11
 LARGEST INCREMENT OF TEMP.         0.599       AT NODE          1   DOF 11
 LARGEST CORRECTION TO TEMP.       -2.128E-05   AT NODE          7   DOF 11
          THE HEAT FLUX EQUILIBRIUM EQUATIONS HAVE CONVERGED

 MAXIMUM NON-PRESCRIBED INCREMENT IN TEMPERATURE IS  -0.300    
          TIME INCREMENT MAY NOW INCREASE TO    0.225    

 ITERATION SUMMARY FOR THE INCREMENT:   1 TOTAL ITERATIONS, OF WHICH
   0 ARE SEVERE DISCONTINUITY ITERATIONS AND  1 ARE EQUILIBRIUM ITERATIONS.

 TIME INCREMENT COMPLETED  0.150    ,  FRACTION OF STEP COMPLETED  5.000E-04
 STEP TIME COMPLETED       0.450    ,  TOTAL TIME COMPLETED        0.450    


  INCREMENT     5 STARTS. ATTEMPT NUMBER  1, TIME INCREMENT  0.225    
 
	UNSYMMETRIC NEW DIRECT SPARSE SOLVER RUNNING ON
 	1 HOST x 1 MPI RANK PER HOST x 1 THREAD PER RANK
        NUMBER OF EQUATIONS:  64
        NUMBER OF RHS:        1
        NUMBER OF FLOPS:      4.378e+04
        SOLVER ELAPSED TIME:  0ms

               CONVERGENCE CHECKS FOR EQUILIBRIUM ITERATION     1


 AVERAGE FORCE                      1.559E-04   TIME AVG. FORCE       1.592E-04
 LARGEST SCALED RESIDUAL FORCE     -2.705E-08   AT NODE          4   DOF  1
  CORRESPONDING RESIDUAL FORCE     -2.705E-08
 LARGEST INCREMENT OF DISP.        -2.872E-05   AT NODE          3   DOF  1
 LARGEST CORRECTION TO DISP.        2.604E-07   AT NODE          3   DOF  3
          THE FORCE     EQUILIBRIUM EQUATIONS HAVE CONVERGED

 AVERAGE HEAT FLUX                  1.014E-03   TIME AVG. HEAT FLUX   1.826E-03
 LARGEST RESIDUAL HEAT FLUX         8.022E-11   AT NODE          7   DOF 11
 LARGEST INCREMENT OF TEMP.         0.899       AT NODE          1   DOF 11
 LARGEST CORRECTION TO TEMP.       -5.786E-05   AT NODE          7   DOF 11
          THE HEAT FLUX EQUILIBRIUM EQUATIONS HAVE CONVERGED

 MAXIMUM NON-PRESCRIBED INCREMENT IN TEMPERATURE IS  -0.451    
          TIME INCREMENT MAY NOW INCREASE TO    0.338    

 ITERATION SUMMARY FOR THE INCREMENT:   1 TOTAL ITERATIONS, OF WHICH
   0 ARE SEVERE DISCONTINUITY ITERATIONS AND  1 ARE EQUILIBRIUM ITERATIONS.

 TIME INCREMENT COMPLETED  0.225    ,  FRACTION OF STEP COMPLETED  7.500E-04
 STEP TIME COMPLETED       0.675    ,  TOTAL TIME COMPLETED        0.675    


  INCREMENT     6 STARTS. ATTEMPT NUMBER  1, TIME INCREMENT  0.338    
 
	UNSYMMETRIC NEW DIRECT SPARSE SOLVER RUNNING ON
 	1 HOST x 1 MPI RANK PER HOST x 1 THREAD PER RANK
        NUMBER OF EQUATIONS:  64
        NUMBER OF RHS:        1
        NUMBER OF FLOPS:      4.378e+04
        SOLVER ELAPSED TIME:  0ms

               CONVERGENCE CHECKS FOR EQUILIBRIUM ITERATION     1


 AVERAGE FORCE                      2.481E-04   TIME AVG. FORCE       1.740E-04
 LARGEST SCALED RESIDUAL FORCE     -8.673E-09   AT NODE          4   DOF  3
  CORRESPONDING RESIDUAL FORCE     -8.673E-09
 LARGEST INCREMENT OF DISP.        -4.316E-05   AT NODE          3   DOF  1
 LARGEST CORRECTION TO DISP.       -1.452E-07   AT NODE          3   DOF  3
          THE FORCE     EQUILIBRIUM EQUATIONS HAVE CONVERGED

 AVERAGE HEAT FLUX                  1.016E-03   TIME AVG. HEAT FLUX   1.691E-03
 LARGEST RESIDUAL HEAT FLUX        -5.103E-11   AT NODE          7   DOF 11
 LARGEST INCREMENT OF TEMP.          1.35       AT NODE          1   DOF 11
 LARGEST CORRECTION TO TEMP.        6.939E-03   AT NODE          6   DOF 11
          THE HEAT FLUX EQUILIBRIUM EQUATIONS HAVE CONVERGED

 MAXIMUM NON-PRESCRIBED INCREMENT IN TEMPERATURE IS  -0.669    
          TIME INCREMENT MAY NOW INCREASE TO    0.506    

 ITERATION SUMMARY FOR THE INCREMENT:   1 TOTAL ITERATIONS, OF WHICH
   0 ARE SEVERE DISCONTINUITY ITERATIONS AND  1 ARE EQUILIBRIUM ITERATIONS.

 TIME INCREMENT COMPLETED  0.338    ,  FRACTION OF STEP COMPLETED  1.125E-03
 STEP TIME COMPLETED        1.01    ,  TOTAL TIME COMPLETED         1.01    


  INCREMENT     7 STARTS. ATTEMPT NUMBER  1, TIME INCREMENT  0.506    
 
	UNSYMMETRIC NEW DIRECT SPARSE SOLVER RUNNING ON
 	1 HOST x 1 MPI RANK PER HOST x 1 THREAD PER RANK
        NUMBER OF EQUATIONS:  64
        NUMBER OF RHS:        1
        NUMBER OF FLOPS:      4.378e+04
        SOLVER ELAPSED TIME:  0ms

               CONVERGENCE CHECKS FOR EQUILIBRIUM ITERATION     1


 AVERAGE FORCE                      2.225E-04   TIME AVG. FORCE       1.809E-04
 LARGEST SCALED RESIDUAL FORCE      1.967E-08   AT NODE          3   DOF  1
  CORRESPONDING RESIDUAL FORCE      1.967E-08
 LARGEST INCREMENT OF DISP.        -6.480E-05   AT NODE          3   DOF  1
 LARGEST CORRECTION TO DISP.       -1.835E-07   AT NODE          2   DOF  1
          THE FORCE     EQUILIBRIUM EQUATIONS HAVE CONVERGED

 AVERAGE HEAT FLUX                  1.015E-03   TIME AVG. HEAT FLUX   1.594E-03
 LARGEST RESIDUAL HEAT FLUX         1.061E-11   AT NODE          5   DOF 11
 LARGEST INCREMENT OF TEMP.          2.02       AT NODE          1   DOF 11
 LARGEST CORRECTION TO TEMP.       -1.089E-02   AT NODE          7   DOF 11
          THE HEAT FLUX EQUILIBRIUM RESPONSE WAS LINEAR IN THIS INCREMENT

 MAXIMUM NON-PRESCRIBED INCREMENT IN TEMPERATURE IS   -1.01    
          TIME INCREMENT MAY NOW INCREASE TO    0.759    

 ITERATION SUMMARY FOR THE INCREMENT:   1 TOTAL ITERATIONS, OF WHICH
   0 ARE SEVERE DISCONTINUITY ITERATIONS AND  1 ARE EQUILIBRIUM ITERATIONS.

 TIME INCREMENT COMPLETED  0.506    ,  FRACTION OF STEP COMPLETED  1.688E-03
 STEP TIME COMPLETED        1.52    ,  TOTAL TIME COMPLETED         1.52    


  INCREMENT     8 STARTS. ATTEMPT NUMBER  1, TIME INCREMENT  0.759    
 
	UNSYMMETRIC NEW DIRECT SPARSE SOLVER RUNNING ON
 	1 HOST x 1 MPI RANK PER HOST x 1 THREAD PER RANK
        NUMBER OF EQUATIONS:  64
        NUMBER OF RHS:        1
        NUMBER OF FLOPS:      4.378e+04
        SOLVER ELAPSED TIME:  0ms

               CONVERGENCE CHECKS FOR EQUILIBRIUM ITERATION     1


 AVERAGE FORCE                      4.002E-04   TIME AVG. FORCE       2.083E-04
 LARGEST SCALED RESIDUAL FORCE      4.595E-09   AT NODE          1   DOF  2
  CORRESPONDING RESIDUAL FORCE      4.595E-09
 LARGEST INCREMENT OF DISP.        -9.714E-05   AT NODE          3   DOF  1
 LARGEST CORRECTION TO DISP.       -1.736E-07   AT NODE          3   DOF  3
          THE FORCE     EQUILIBRIUM EQUATIONS HAVE CONVERGED

 AVERAGE HEAT FLUX                  1.016E-03   TIME AVG. HEAT FLUX   1.522E-03
 LARGEST RESIDUAL HEAT FLUX         2.354E-11   AT NODE          6   DOF 11
 LARGEST INCREMENT OF TEMP.          3.03       AT NODE          1   DOF 11
 LARGEST CORRECTION TO TEMP.       -6.586E-04   AT NODE          7   DOF 11
          THE HEAT FLUX EQUILIBRIUM EQUATIONS HAVE CONVERGED

 MAXIMUM NON-PRESCRIBED INCREMENT IN TEMPERATURE IS   -1.52    
          TIME INCREMENT MAY NOW INCREASE TO     1.14    

 ITERATION SUMMARY FOR THE INCREMENT:   1 TOTAL ITERATIONS, OF WHICH
   0 ARE SEVERE DISCONTINUITY ITERATIONS AND  1 ARE EQUILIBRIUM ITERATIONS.

 TIME INCREMENT COMPLETED  0.759    ,  FRACTION OF STEP COMPLETED  2.531E-03
 STEP TIME COMPLETED        2.28    ,  TOTAL TIME COMPLETED         2.28    


  INCREMENT     9 STARTS. ATTEMPT NUMBER  1, TIME INCREMENT   1.14    
 
	UNSYMMETRIC NEW DIRECT SPARSE SOLVER RUNNING ON
 	1 HOST x 1 MPI RANK PER HOST x 1 THREAD PER RANK
        NUMBER OF EQUATIONS:  64
        NUMBER OF RHS:        1
        NUMBER OF FLOPS:      4.378e+04
        SOLVER ELAPSED TIME:  0ms

               CONVERGENCE CHECKS FOR EQUILIBRIUM ITERATION     1


 AVERAGE FORCE                      3.158E-04   TIME AVG. FORCE       2.203E-04
 LARGEST SCALED RESIDUAL FORCE      7.451E-09   AT NODE          4   DOF  1
  CORRESPONDING RESIDUAL FORCE      7.451E-09
 LARGEST INCREMENT OF DISP.        -1.458E-04   AT NODE          3   DOF  1
 LARGEST CORRECTION TO DISP.        3.959E-07   AT NODE          2   DOF  1
          THE FORCE     EQUILIBRIUM EQUATIONS HAVE CONVERGED

 AVERAGE HEAT FLUX                  1.017E-03   TIME AVG. HEAT FLUX   1.466E-03
 LARGEST RESIDUAL HEAT FLUX        -5.753E-11   AT NODE          7   DOF 11
 LARGEST INCREMENT OF TEMP.          4.55       AT NODE          1   DOF 11
 LARGEST CORRECTION TO TEMP.       -2.109E-03   AT NODE          7   DOF 11
          THE HEAT FLUX EQUILIBRIUM EQUATIONS HAVE CONVERGED

 MAXIMUM NON-PRESCRIBED INCREMENT IN TEMPERATURE IS   -2.28    
          TIME INCREMENT MAY NOW INCREASE TO     1.71    

 ITERATION SUMMARY FOR THE INCREMENT:   1 TOTAL ITERATIONS, OF WHICH
   0 ARE SEVERE DISCONTINUITY ITERATIONS AND  1 ARE EQUILIBRIUM ITERATIONS.

 TIME INCREMENT COMPLETED   1.14    ,  FRACTION OF STEP COMPLETED  3.797E-03
 STEP TIME COMPLETED        3.42    ,  TOTAL TIME COMPLETED         3.42    


  INCREMENT    10 STARTS. ATTEMPT NUMBER  1, TIME INCREMENT   1.71    
 
	UNSYMMETRIC NEW DIRECT SPARSE SOLVER RUNNING ON
 	1 HOST x 1 MPI RANK PER HOST x 1 THREAD PER RANK
        NUMBER OF EQUATIONS:  64
        NUMBER OF RHS:        1
        NUMBER OF FLOPS:      4.378e+04
        SOLVER ELAPSED TIME:  0ms

               CONVERGENCE CHECKS FOR EQUILIBRIUM ITERATION     1


 AVERAGE FORCE                      3.900E-04   TIME AVG. FORCE       2.372E-04
 LARGEST SCALED RESIDUAL FORCE      3.013E-08   AT NODE          7   DOF  2
  CORRESPONDING RESIDUAL FORCE      3.013E-08
 LARGEST INCREMENT OF DISP.        -2.191E-04   AT NODE          3   DOF  1
 LARGEST CORRECTION TO DISP.       -3.821E-07   AT NODE          3   DOF  1
          THE FORCE     EQUILIBRIUM EQUATIONS HAVE CONVERGED

 AVERAGE HEAT FLUX                  1.018E-03   TIME AVG. HEAT FLUX   1.421E-03
 LARGEST RESIDUAL HEAT FLUX        -5.878E-11   AT NODE          7   DOF 11
 LARGEST INCREMENT OF TEMP.          6.83       AT NODE          1   DOF 11
 LARGEST CORRECTION TO TEMP.       -3.194E-03   AT NODE          7   DOF 11
          THE HEAT FLUX EQUILIBRIUM EQUATIONS HAVE CONVERGED

 MAXIMUM NON-PRESCRIBED INCREMENT IN TEMPERATURE IS   -3.43    
          TIME INCREMENT MAY NOW INCREASE TO     2.56    

 ITERATION SUMMARY FOR THE INCREMENT:   1 TOTAL ITERATIONS, OF WHICH
   0 ARE SEVERE DISCONTINUITY ITERATIONS AND  1 ARE EQUILIBRIUM ITERATIONS.

 TIME INCREMENT COMPLETED   1.71    ,  FRACTION OF STEP COMPLETED  5.695E-03
 STEP TIME COMPLETED        5.13    ,  TOTAL TIME COMPLETED         5.13    


  INCREMENT    11 STARTS. ATTEMPT NUMBER  1, TIME INCREMENT   2.56    
 
	UNSYMMETRIC NEW DIRECT SPARSE SOLVER RUNNING ON
 	1 HOST x 1 MPI RANK PER HOST x 1 THREAD PER RANK
        NUMBER OF EQUATIONS:  64
        NUMBER OF RHS:        1
        NUMBER OF FLOPS:      4.378e+04
        SOLVER ELAPSED TIME:  0ms

               CONVERGENCE CHECKS FOR EQUILIBRIUM ITERATION     1


 AVERAGE FORCE                      4.378E-04   TIME AVG. FORCE       2.555E-04
 LARGEST SCALED RESIDUAL FORCE      2.960E-08   AT NODE          3   DOF  1
  CORRESPONDING RESIDUAL FORCE      2.960E-08
 LARGEST INCREMENT OF DISP.        -3.293E-04   AT NODE          3   DOF  1
 LARGEST CORRECTION TO DISP.        7.579E-07   AT NODE          2   DOF  1
          THE FORCE     EQUILIBRIUM EQUATIONS HAVE CONVERGED

 AVERAGE HEAT FLUX                  1.022E-03   TIME AVG. HEAT FLUX   1.385E-03
 LARGEST RESIDUAL HEAT FLUX        -3.764E-10   AT NODE          6   DOF 11
 LARGEST INCREMENT OF TEMP.          10.2       AT NODE          1   DOF 11
 LARGEST CORRECTION TO TEMP.        3.490E-02   AT NODE          6   DOF 11
          THE HEAT FLUX EQUILIBRIUM EQUATIONS HAVE CONVERGED

 MAXIMUM NON-PRESCRIBED INCREMENT IN TEMPERATURE IS   -5.11    
          TIME INCREMENT MAY NOW INCREASE TO     3.84    

 ITERATION SUMMARY FOR THE INCREMENT:   1 TOTAL ITERATIONS, OF WHICH
   0 ARE SEVERE DISCONTINUITY ITERATIONS AND  1 ARE EQUILIBRIUM ITERATIONS.

 TIME INCREMENT COMPLETED   2.56    ,  FRACTION OF STEP COMPLETED  8.543E-03
 STEP TIME COMPLETED        7.69    ,  TOTAL TIME COMPLETED         7.69    


  INCREMENT    12 STARTS. ATTEMPT NUMBER  1, TIME INCREMENT   3.84    
 
	UNSYMMETRIC NEW DIRECT SPARSE SOLVER RUNNING ON
 	1 HOST x 1 MPI RANK PER HOST x 1 THREAD PER RANK
        NUMBER OF EQUATIONS:  64
        NUMBER OF RHS:        1
        NUMBER OF FLOPS:      4.378e+04
        SOLVER ELAPSED TIME:  0ms

               CONVERGENCE CHECKS FOR EQUILIBRIUM ITERATION     1


 AVERAGE FORCE                      6.072E-04   TIME AVG. FORCE       2.848E-04
 LARGEST SCALED RESIDUAL FORCE     -8.741E-08   AT NODE          8   DOF  3
  CORRESPONDING RESIDUAL FORCE     -8.741E-08
 LARGEST INCREMENT OF DISP.        -4.946E-04   AT NODE          3   DOF  1
 LARGEST CORRECTION TO DISP.       -6.100E-07   AT NODE          3   DOF  1
          THE FORCE     EQUILIBRIUM EQUATIONS HAVE CONVERGED

 AVERAGE HEAT FLUX                  1.025E-03   TIME AVG. HEAT FLUX   1.355E-03
 LARGEST RESIDUAL HEAT FLUX        -2.268E-10   AT NODE          6   DOF 11
 LARGEST INCREMENT OF TEMP.          15.4       AT NODE          1   DOF 11
 LARGEST CORRECTION TO TEMP.       -8.255E-02   AT NODE          7   DOF 11
          THE HEAT FLUX EQUILIBRIUM EQUATIONS HAVE CONVERGED

 MAXIMUM NON-PRESCRIBED INCREMENT IN TEMPERATURE IS   -7.75    
          TIME INCREMENT MAY NOW INCREASE TO     5.77    

 ITERATION SUMMARY FOR THE INCREMENT:   1 TOTAL ITERATIONS, OF WHICH
   0 ARE SEVERE DISCONTINUITY ITERATIONS AND  1 ARE EQUILIBRIUM ITERATIONS.

 TIME INCREMENT COMPLETED   3.84    ,  FRACTION OF STEP COMPLETED  1.281E-02
 STEP TIME COMPLETED        11.5    ,  TOTAL TIME COMPLETED         11.5    


  INCREMENT    13 STARTS. ATTEMPT NUMBER  1, TIME INCREMENT   5.77    
 
	UNSYMMETRIC NEW DIRECT SPARSE SOLVER RUNNING ON
 	1 HOST x 1 MPI RANK PER HOST x 1 THREAD PER RANK
        NUMBER OF EQUATIONS:  64
        NUMBER OF RHS:        1
        NUMBER OF FLOPS:      4.378e+04
        SOLVER ELAPSED TIME:  0ms

               CONVERGENCE CHECKS FOR EQUILIBRIUM ITERATION     1


 AVERAGE FORCE                      8.623E-04   TIME AVG. FORCE       3.292E-04
 LARGEST SCALED RESIDUAL FORCE      1.698E-07   AT NODE          1   DOF  2
  CORRESPONDING RESIDUAL FORCE      1.698E-07
 LARGEST INCREMENT OF DISP.        -7.452E-04   AT NODE          3   DOF  1
 LARGEST CORRECTION TO DISP.       -3.249E-06   AT NODE          3   DOF  1
          THE FORCE     EQUILIBRIUM EQUATIONS HAVE CONVERGED

 AVERAGE HEAT FLUX                  1.030E-03   TIME AVG. HEAT FLUX   1.330E-03
 LARGEST RESIDUAL HEAT FLUX        -1.147E-09   AT NODE          7   DOF 11
 LARGEST INCREMENT OF TEMP.          23.0       AT NODE          1   DOF 11
 LARGEST CORRECTION TO TEMP.       -4.175E-02   AT NODE          7   DOF 11
          THE HEAT FLUX EQUILIBRIUM EQUATIONS HAVE CONVERGED

 MAXIMUM NON-PRESCRIBED INCREMENT IN TEMPERATURE IS   -11.7    
          TIME INCREMENT MAY NOW INCREASE TO     8.65    

 ITERATION SUMMARY FOR THE INCREMENT:   1 TOTAL ITERATIONS, OF WHICH
   0 ARE SEVERE DISCONTINUITY ITERATIONS AND  1 ARE EQUILIBRIUM ITERATIONS.

 TIME INCREMENT COMPLETED   5.77    ,  FRACTION OF STEP COMPLETED  1.922E-02
 STEP TIME COMPLETED        17.3    ,  TOTAL TIME COMPLETED         17.3    


  INCREMENT    14 STARTS. ATTEMPT NUMBER  1, TIME INCREMENT   8.65    
 
	UNSYMMETRIC NEW DIRECT SPARSE SOLVER RUNNING ON
 	1 HOST x 1 MPI RANK PER HOST x 1 THREAD PER RANK
        NUMBER OF EQUATIONS:  64
        NUMBER OF RHS:        1
        NUMBER OF FLOPS:      4.378e+04
        SOLVER ELAPSED TIME:  0ms

               CONVERGENCE CHECKS FOR EQUILIBRIUM ITERATION     1


 AVERAGE FORCE                      1.248E-03   TIME AVG. FORCE       3.948E-04
 LARGEST SCALED RESIDUAL FORCE      3.910E-07   AT NODE          2   DOF  1
  CORRESPONDING RESIDUAL FORCE      3.910E-07
 LARGEST INCREMENT OF DISP.        -1.127E-03   AT NODE          3   DOF  1
 LARGEST CORRECTION TO DISP.       -8.906E-06   AT NODE          3   DOF  1
          THE FORCE     EQUILIBRIUM EQUATIONS HAVE CONVERGED

 AVERAGE HEAT FLUX                  1.040E-03   TIME AVG. HEAT FLUX   1.309E-03
 LARGEST RESIDUAL HEAT FLUX        -3.305E-09   AT NODE          7   DOF 11
 LARGEST INCREMENT OF TEMP.          34.6       AT NODE          1   DOF 11
 LARGEST CORRECTION TO TEMP.        0.112       AT NODE          6   DOF 11
          THE HEAT FLUX EQUILIBRIUM EQUATIONS HAVE CONVERGED

 MAXIMUM NON-PRESCRIBED INCREMENT IN TEMPERATURE IS   -17.4    
          TIME INCREMENT MAY NOW INCREASE TO     13.0    

 ITERATION SUMMARY FOR THE INCREMENT:   1 TOTAL ITERATIONS, OF WHICH
   0 ARE SEVERE DISCONTINUITY ITERATIONS AND  1 ARE EQUILIBRIUM ITERATIONS.

 TIME INCREMENT COMPLETED   8.65    ,  FRACTION OF STEP COMPLETED  2.883E-02
 STEP TIME COMPLETED        25.9    ,  TOTAL TIME COMPLETED         25.9    


  INCREMENT    15 STARTS. ATTEMPT NUMBER  1, TIME INCREMENT   13.0    
 
	UNSYMMETRIC NEW DIRECT SPARSE SOLVER RUNNING ON
 	1 HOST x 1 MPI RANK PER HOST x 1 THREAD PER RANK
        NUMBER OF EQUATIONS:  64
        NUMBER OF RHS:        1
        NUMBER OF FLOPS:      4.378e+04
        SOLVER ELAPSED TIME:  0ms

               CONVERGENCE CHECKS FOR EQUILIBRIUM ITERATION     1


 AVERAGE FORCE                      1.831E-03   TIME AVG. FORCE       4.906E-04
 LARGEST SCALED RESIDUAL FORCE      8.267E-07   AT NODE          3   DOF  1
  CORRESPONDING RESIDUAL FORCE      8.267E-07
 LARGEST INCREMENT OF DISP.        -1.702E-03   AT NODE          3   DOF  1
 LARGEST CORRECTION TO DISP.       -1.205E-05   AT NODE          3   DOF  1
          THE FORCE     EQUILIBRIUM EQUATIONS HAVE CONVERGED

 AVERAGE HEAT FLUX                  1.051E-03   TIME AVG. HEAT FLUX   1.292E-03
 LARGEST RESIDUAL HEAT FLUX        -4.436E-09   AT NODE          8   DOF 11
 LARGEST INCREMENT OF TEMP.          51.8       AT NODE          1   DOF 11
 LARGEST CORRECTION TO TEMP.       -0.522       AT NODE          7   DOF 11
 ESTIMATE OF TEMP.    CORRECTION   -1.739E-04
 HEAT FLUX EQUILIB. ACCEPTED BASED ON SMALL RESIDUAL AND ESTIMATED CORRECTION

 MAXIMUM NON-PRESCRIBED INCREMENT IN TEMPERATURE IS   -26.6    
          TIME INCREMENT MAY NOW INCREASE TO     19.5    

 ITERATION SUMMARY FOR THE INCREMENT:   1 TOTAL ITERATIONS, OF WHICH
   0 ARE SEVERE DISCONTINUITY ITERATIONS AND  1 ARE EQUILIBRIUM ITERATIONS.

 TIME INCREMENT COMPLETED   13.0    ,  FRACTION OF STEP COMPLETED  4.325E-02
 STEP TIME COMPLETED        38.9    ,  TOTAL TIME COMPLETED         38.9    


  INCREMENT    16 STARTS. ATTEMPT NUMBER  1, TIME INCREMENT   19.5    
 
	UNSYMMETRIC NEW DIRECT SPARSE SOLVER RUNNING ON
 	1 HOST x 1 MPI RANK PER HOST x 1 THREAD PER RANK
        NUMBER OF EQUATIONS:  64
        NUMBER OF RHS:        1
        NUMBER OF FLOPS:      4.378e+04
        SOLVER ELAPSED TIME:  0ms

               CONVERGENCE CHECKS FOR EQUILIBRIUM ITERATION     1


 AVERAGE FORCE                      2.719E-03   TIME AVG. FORCE       6.299E-04
 LARGEST SCALED RESIDUAL FORCE      2.033E-06   AT NODE          2   DOF  1
  CORRESPONDING RESIDUAL FORCE      2.033E-06
 LARGEST INCREMENT OF DISP.        -2.597E-03   AT NODE          3   DOF  1
 LARGEST CORRECTION TO DISP.       -4.375E-05   AT NODE          3   DOF  1
 ESTIMATE OF DISP.    CORRECTION    5.161E-08
 FORCE     EQUILIB. ACCEPTED BASED ON SMALL RESIDUAL AND ESTIMATED CORRECTION

 AVERAGE HEAT FLUX                  1.074E-03   TIME AVG. HEAT FLUX   1.278E-03
 LARGEST RESIDUAL HEAT FLUX        -1.722E-08   AT NODE          7   DOF 11
 LARGEST INCREMENT OF TEMP.          77.8       AT NODE          1   DOF 11
 LARGEST CORRECTION TO TEMP.        0.426       AT NODE          6   DOF 11
          THE HEAT FLUX EQUILIBRIUM EQUATIONS HAVE CONVERGED

 MAXIMUM NON-PRESCRIBED INCREMENT IN TEMPERATURE IS   -39.5    
          TIME INCREMENT MAY NOW INCREASE TO     29.2    

 ITERATION SUMMARY FOR THE INCREMENT:   1 TOTAL ITERATIONS, OF WHICH
   0 ARE SEVERE DISCONTINUITY ITERATIONS AND  1 ARE EQUILIBRIUM ITERATIONS.

 TIME INCREMENT COMPLETED   19.5    ,  FRACTION OF STEP COMPLETED  6.487E-02
 STEP TIME COMPLETED        58.4    ,  TOTAL TIME COMPLETED         58.4    


  INCREMENT    17 STARTS. ATTEMPT NUMBER  1, TIME INCREMENT   29.2    
 
	UNSYMMETRIC NEW DIRECT SPARSE SOLVER RUNNING ON
 	1 HOST x 1 MPI RANK PER HOST x 1 THREAD PER RANK
        NUMBER OF EQUATIONS:  64
        NUMBER OF RHS:        1
        NUMBER OF FLOPS:      4.378e+04
        SOLVER ELAPSED TIME:  0ms

               CONVERGENCE CHECKS FOR EQUILIBRIUM ITERATION     1


 AVERAGE FORCE                      4.074E-03   TIME AVG. FORCE       8.325E-04
 LARGEST SCALED RESIDUAL FORCE      4.757E-06   AT NODE          2   DOF  1
  CORRESPONDING RESIDUAL FORCE      4.757E-06
 LARGEST INCREMENT OF DISP.        -3.959E-03   AT NODE          3   DOF  1
 LARGEST CORRECTION TO DISP.       -6.370E-05   AT NODE          3   DOF  1
          FORCE     EQUILIBRIUM NOT ACHIEVED WITHIN TOLERANCE.

 AVERAGE HEAT FLUX                  5.500E-04   TIME AVG. HEAT FLUX   1.236E-03
 LARGEST RESIDUAL HEAT FLUX        -2.933E-08   AT NODE          6   DOF 11
 LARGEST INCREMENT OF TEMP.          117.       AT NODE          1   DOF 11
 LARGEST CORRECTION TO TEMP.        -2.53       AT NODE          7   DOF 11
 ESTIMATE OF TEMP.    CORRECTION   -2.628E-03
 HEAT FLUX EQUILIB. ACCEPTED BASED ON SMALL RESIDUAL AND ESTIMATED CORRECTION
 
	UNSYMMETRIC NEW DIRECT SPARSE SOLVER RUNNING ON
 	1 HOST x 1 MPI RANK PER HOST x 1 THREAD PER RANK
        NUMBER OF EQUATIONS:  64
        NUMBER OF RHS:        1
        NUMBER OF FLOPS:      4.378e+04
        SOLVER ELAPSED TIME:  0ms

               CONVERGENCE CHECKS FOR EQUILIBRIUM ITERATION     2


 AVERAGE FORCE                      8.144E-03   TIME AVG. FORCE       1.072E-03
 LARGEST SCALED RESIDUAL FORCE      1.213E-08   AT NODE          7   DOF  3
  CORRESPONDING RESIDUAL FORCE      1.213E-08
 LARGEST INCREMENT OF DISP.        -3.959E-03   AT NODE          3   DOF  1
 LARGEST CORRECTION TO DISP.        5.074E-07   AT NODE          7   DOF  3
          THE FORCE     EQUILIBRIUM EQUATIONS HAVE CONVERGED

 AVERAGE HEAT FLUX                  1.100E-03   TIME AVG. HEAT FLUX   1.268E-03
 LARGEST RESIDUAL HEAT FLUX        -1.772E-10   AT NODE          7   DOF 11
 LARGEST INCREMENT OF TEMP.          117.       AT NODE          1   DOF 11
 LARGEST CORRECTION TO TEMP.       -2.619E-03   AT NODE          6   DOF 11
          THE HEAT FLUX EQUILIBRIUM EQUATIONS HAVE CONVERGED

 MAXIMUM NON-PRESCRIBED INCREMENT IN TEMPERATURE IS   -61.8    
          TIME INCREMENT MAY NOW INCREASE TO     37.8    

 ITERATION SUMMARY FOR THE INCREMENT:   2 TOTAL ITERATIONS, OF WHICH
   0 ARE SEVERE DISCONTINUITY ITERATIONS AND  2 ARE EQUILIBRIUM ITERATIONS.

 TIME INCREMENT COMPLETED   29.2    ,  FRACTION OF STEP COMPLETED  9.731E-02
 STEP TIME COMPLETED        87.6    ,  TOTAL TIME COMPLETED         87.6    


  INCREMENT    18 STARTS. ATTEMPT NUMBER  1, TIME INCREMENT   37.8    
 
	UNSYMMETRIC NEW DIRECT SPARSE SOLVER RUNNING ON
 	1 HOST x 1 MPI RANK PER HOST x 1 THREAD PER RANK
        NUMBER OF EQUATIONS:  64
        NUMBER OF RHS:        1
        NUMBER OF FLOPS:      4.378e+04
        SOLVER ELAPSED TIME:  0ms

               CONVERGENCE CHECKS FOR EQUILIBRIUM ITERATION     1


 AVERAGE FORCE                      5.890E-03   TIME AVG. FORCE       1.340E-03
 LARGEST SCALED RESIDUAL FORCE      9.015E-06   AT NODE          2   DOF  1
  CORRESPONDING RESIDUAL FORCE      9.015E-06
 LARGEST INCREMENT OF DISP.        -5.309E-03   AT NODE          3   DOF  1
 LARGEST CORRECTION TO DISP.       -1.823E-04   AT NODE          3   DOF  1
          FORCE     EQUILIBRIUM NOT ACHIEVED WITHIN TOLERANCE.

 AVERAGE HEAT FLUX                  5.756E-04   TIME AVG. HEAT FLUX   1.229E-03
 LARGEST RESIDUAL HEAT FLUX        -7.788E-08   AT NODE          7   DOF 11
 LARGEST INCREMENT OF TEMP.          151.       AT NODE          1   DOF 11
 LARGEST CORRECTION TO TEMP.         2.00       AT NODE          6   DOF 11
 ESTIMATE OF TEMP.    CORRECTION   -9.150E-03
 HEAT FLUX EQUILIB. ACCEPTED BASED ON SMALL RESIDUAL AND ESTIMATED CORRECTION
 
	UNSYMMETRIC NEW DIRECT SPARSE SOLVER RUNNING ON
 	1 HOST x 1 MPI RANK PER HOST x 1 THREAD PER RANK
        NUMBER OF EQUATIONS:  64
        NUMBER OF RHS:        1
        NUMBER OF FLOPS:      4.378e+04
        SOLVER ELAPSED TIME:  0ms

               CONVERGENCE CHECKS FOR EQUILIBRIUM ITERATION     2


 AVERAGE FORCE                      8.310E-03   TIME AVG. FORCE       1.474E-03
 LARGEST SCALED RESIDUAL FORCE     -7.174E-08   AT NODE          7   DOF  2
  CORRESPONDING RESIDUAL FORCE     -7.174E-08
 LARGEST INCREMENT OF DISP.        -5.309E-03   AT NODE          3   DOF  1
 LARGEST CORRECTION TO DISP.       -2.658E-06   AT NODE          7   DOF  2
          THE FORCE     EQUILIBRIUM EQUATIONS HAVE CONVERGED

 AVERAGE HEAT FLUX                  1.151E-03   TIME AVG. HEAT FLUX   1.261E-03
 LARGEST RESIDUAL HEAT FLUX        -1.091E-09   AT NODE          7   DOF 11
 LARGEST INCREMENT OF TEMP.          151.       AT NODE          1   DOF 11
 LARGEST CORRECTION TO TEMP.       -9.390E-03   AT NODE          7   DOF 11
          THE HEAT FLUX EQUILIBRIUM EQUATIONS HAVE CONVERGED

 MAXIMUM NON-PRESCRIBED INCREMENT IN TEMPERATURE IS   -78.1    

 ITERATION SUMMARY FOR THE INCREMENT:   2 TOTAL ITERATIONS, OF WHICH
   0 ARE SEVERE DISCONTINUITY ITERATIONS AND  2 ARE EQUILIBRIUM ITERATIONS.

 TIME INCREMENT COMPLETED   37.8    ,  FRACTION OF STEP COMPLETED  0.139    
 STEP TIME COMPLETED        125.    ,  TOTAL TIME COMPLETED         125.    


  INCREMENT    19 STARTS. ATTEMPT NUMBER  1, TIME INCREMENT   37.8    
 
	UNSYMMETRIC NEW DIRECT SPARSE SOLVER RUNNING ON
 	1 HOST x 1 MPI RANK PER HOST x 1 THREAD PER RANK
        NUMBER OF EQUATIONS:  64
        NUMBER OF RHS:        1
        NUMBER OF FLOPS:      4.378e+04
        SOLVER ELAPSED TIME:  0ms

               CONVERGENCE CHECKS FOR EQUILIBRIUM ITERATION     1


 AVERAGE FORCE                      7.744E-03   TIME AVG. FORCE       1.804E-03
 LARGEST SCALED RESIDUAL FORCE      1.117E-05   AT NODE          2   DOF  1
  CORRESPONDING RESIDUAL FORCE      1.117E-05
 LARGEST INCREMENT OF DISP.        -5.420E-03   AT NODE          3   DOF  1
 LARGEST CORRECTION TO DISP.       -1.107E-04   AT NODE          3   DOF  1
          FORCE     EQUILIBRIUM NOT ACHIEVED WITHIN TOLERANCE.

 AVERAGE HEAT FLUX                  5.945E-04   TIME AVG. HEAT FLUX   1.226E-03
 LARGEST RESIDUAL HEAT FLUX        -8.018E-08   AT NODE          6   DOF 11
 LARGEST INCREMENT OF TEMP.          151.       AT NODE          1   DOF 11
 LARGEST CORRECTION TO TEMP.        -6.59       AT NODE          7   DOF 11
 ESTIMATE OF TEMP.    CORRECTION   -9.472E-03
 HEAT FLUX EQUILIB. ACCEPTED BASED ON SMALL RESIDUAL AND ESTIMATED CORRECTION
 
	UNSYMMETRIC NEW DIRECT SPARSE SOLVER RUNNING ON
 	1 HOST x 1 MPI RANK PER HOST x 1 THREAD PER RANK
        NUMBER OF EQUATIONS:  64
        NUMBER OF RHS:        1
        NUMBER OF FLOPS:      4.378e+04
        SOLVER ELAPSED TIME:  0ms

               CONVERGENCE CHECKS FOR EQUILIBRIUM ITERATION     2


 AVERAGE FORCE                      1.327E-02   TIME AVG. FORCE       2.095E-03
 LARGEST SCALED RESIDUAL FORCE     -5.115E-08   AT NODE          7   DOF  2
  CORRESPONDING RESIDUAL FORCE     -5.115E-08
 LARGEST INCREMENT OF DISP.        -5.420E-03   AT NODE          3   DOF  1
 LARGEST CORRECTION TO DISP.       -1.337E-06   AT NODE          7   DOF  2
          THE FORCE     EQUILIBRIUM EQUATIONS HAVE CONVERGED

 AVERAGE HEAT FLUX                  1.189E-03   TIME AVG. HEAT FLUX   1.258E-03
 LARGEST RESIDUAL HEAT FLUX        -5.408E-10   AT NODE          7   DOF 11
 LARGEST INCREMENT OF TEMP.          151.       AT NODE          1   DOF 11
 LARGEST CORRECTION TO TEMP.       -9.541E-03   AT NODE          6   DOF 11
          THE HEAT FLUX EQUILIBRIUM EQUATIONS HAVE CONVERGED

 MAXIMUM NON-PRESCRIBED INCREMENT IN TEMPERATURE IS   -84.7    

 ITERATION SUMMARY FOR THE INCREMENT:   2 TOTAL ITERATIONS, OF WHICH
   0 ARE SEVERE DISCONTINUITY ITERATIONS AND  2 ARE EQUILIBRIUM ITERATIONS.

 TIME INCREMENT COMPLETED   37.8    ,  FRACTION OF STEP COMPLETED  0.181    
 STEP TIME COMPLETED        163.    ,  TOTAL TIME COMPLETED         163.    


  INCREMENT    20 STARTS. ATTEMPT NUMBER  1, TIME INCREMENT   37.8    
 
	UNSYMMETRIC NEW DIRECT SPARSE SOLVER RUNNING ON
 	1 HOST x 1 MPI RANK PER HOST x 1 THREAD PER RANK
        NUMBER OF EQUATIONS:  64
        NUMBER OF RHS:        1
        NUMBER OF FLOPS:      4.378e+04
        SOLVER ELAPSED TIME:  0ms

               CONVERGENCE CHECKS FOR EQUILIBRIUM ITERATION     1


 AVERAGE FORCE                      9.641E-03   TIME AVG. FORCE       2.472E-03
 LARGEST SCALED RESIDUAL FORCE      1.224E-05   AT NODE          2   DOF  1
  CORRESPONDING RESIDUAL FORCE      1.224E-05
 LARGEST INCREMENT OF DISP.        -5.554E-03   AT NODE          3   DOF  1
 LARGEST CORRECTION TO DISP.       -1.343E-04   AT NODE          3   DOF  1
 ESTIMATE OF DISP.    CORRECTION    1.836E-07
 FORCE     EQUILIB. ACCEPTED BASED ON SMALL RESIDUAL AND ESTIMATED CORRECTION

 AVERAGE HEAT FLUX                  6.167E-04   TIME AVG. HEAT FLUX   1.226E-03
 LARGEST RESIDUAL HEAT FLUX        -6.459E-08   AT NODE          6   DOF 11
 LARGEST INCREMENT OF TEMP.          151.       AT NODE          1   DOF 11
 LARGEST CORRECTION TO TEMP.        -4.29       AT NODE          7   DOF 11
 ESTIMATE OF TEMP.    CORRECTION   -7.755E-03
 HEAT FLUX EQUILIB. ACCEPTED BASED ON SMALL RESIDUAL AND ESTIMATED CORRECTION

 MAXIMUM NON-PRESCRIBED INCREMENT IN TEMPERATURE IS   -89.0    

 ITERATION SUMMARY FOR THE INCREMENT:   1 TOTAL ITERATIONS, OF WHICH
   0 ARE SEVERE DISCONTINUITY ITERATIONS AND  1 ARE EQUILIBRIUM ITERATIONS.

 TIME INCREMENT COMPLETED   37.8    ,  FRACTION OF STEP COMPLETED  0.223    
 STEP TIME COMPLETED        201.    ,  TOTAL TIME COMPLETED         201.    


  INCREMENT    21 STARTS. ATTEMPT NUMBER  1, TIME INCREMENT   37.8    
 
	UNSYMMETRIC NEW DIRECT SPARSE SOLVER RUNNING ON
 	1 HOST x 1 MPI RANK PER HOST x 1 THREAD PER RANK
        NUMBER OF EQUATIONS:  64
        NUMBER OF RHS:        1
        NUMBER OF FLOPS:      4.378e+04
        SOLVER ELAPSED TIME:  0ms

               CONVERGENCE CHECKS FOR EQUILIBRIUM ITERATION     1


 AVERAGE FORCE                      1.160E-02   TIME AVG. FORCE       2.906E-03
 LARGEST SCALED RESIDUAL FORCE      1.487E-05   AT NODE          2   DOF  1
  CORRESPONDING RESIDUAL FORCE      1.487E-05
 LARGEST INCREMENT OF DISP.        -5.728E-03   AT NODE          3   DOF  1
 LARGEST CORRECTION TO DISP.       -1.738E-04   AT NODE          3   DOF  1
          FORCE     EQUILIBRIUM NOT ACHIEVED WITHIN TOLERANCE.

 AVERAGE HEAT FLUX                  6.438E-04   TIME AVG. HEAT FLUX   1.198E-03
 LARGEST RESIDUAL HEAT FLUX        -6.787E-08   AT NODE          6   DOF 11
 LARGEST INCREMENT OF TEMP.          151.       AT NODE          1   DOF 11
 LARGEST CORRECTION TO TEMP.        -1.21       AT NODE          7   DOF 11
          THE HEAT FLUX EQUILIBRIUM EQUATIONS HAVE CONVERGED
 
	UNSYMMETRIC NEW DIRECT SPARSE SOLVER RUNNING ON
 	1 HOST x 1 MPI RANK PER HOST x 1 THREAD PER RANK
        NUMBER OF EQUATIONS:  64
        NUMBER OF RHS:        1
        NUMBER OF FLOPS:      4.378e+04
        SOLVER ELAPSED TIME:  0ms

               CONVERGENCE CHECKS FOR EQUILIBRIUM ITERATION     2


 AVERAGE FORCE                      1.325E-02   TIME AVG. FORCE       2.985E-03
 LARGEST SCALED RESIDUAL FORCE      2.154E-07   AT NODE          7   DOF  3
  CORRESPONDING RESIDUAL FORCE      2.154E-07
 LARGEST INCREMENT OF DISP.        -5.729E-03   AT NODE          3   DOF  1
 LARGEST CORRECTION TO DISP.        3.945E-06   AT NODE          7   DOF  3
          THE FORCE     EQUILIBRIUM EQUATIONS HAVE CONVERGED

 AVERAGE HEAT FLUX                  1.288E-03   TIME AVG. HEAT FLUX   1.228E-03
 LARGEST RESIDUAL HEAT FLUX        -1.711E-09   AT NODE          7   DOF 11
 LARGEST INCREMENT OF TEMP.          151.       AT NODE          1   DOF 11
 LARGEST CORRECTION TO TEMP.       -8.543E-03   AT NODE          7   DOF 11
          THE HEAT FLUX EQUILIBRIUM EQUATIONS HAVE CONVERGED

 MAXIMUM NON-PRESCRIBED INCREMENT IN TEMPERATURE IS   -90.2    

 ITERATION SUMMARY FOR THE INCREMENT:   2 TOTAL ITERATIONS, OF WHICH
   0 ARE SEVERE DISCONTINUITY ITERATIONS AND  2 ARE EQUILIBRIUM ITERATIONS.

 TIME INCREMENT COMPLETED   37.8    ,  FRACTION OF STEP COMPLETED  0.265    
 STEP TIME COMPLETED        239.    ,  TOTAL TIME COMPLETED         239.    


  INCREMENT    22 STARTS. ATTEMPT NUMBER  1, TIME INCREMENT   37.8    
 
	UNSYMMETRIC NEW DIRECT SPARSE SOLVER RUNNING ON
 	1 HOST x 1 MPI RANK PER HOST x 1 THREAD PER RANK
        NUMBER OF EQUATIONS:  64
        NUMBER OF RHS:        1
        NUMBER OF FLOPS:      4.378e+04
        SOLVER ELAPSED TIME:  0ms

               CONVERGENCE CHECKS FOR EQUILIBRIUM ITERATION     1


 AVERAGE FORCE                      1.359E-02   TIME AVG. FORCE       3.467E-03
 LARGEST SCALED RESIDUAL FORCE      1.360E-05   AT NODE          2   DOF  1
  CORRESPONDING RESIDUAL FORCE      1.360E-05
 LARGEST INCREMENT OF DISP.        -5.837E-03   AT NODE          3   DOF  1
 LARGEST CORRECTION TO DISP.       -1.082E-04   AT NODE          3   DOF  1
 ESTIMATE OF DISP.    CORRECTION    1.486E-07
 FORCE     EQUILIB. ACCEPTED BASED ON SMALL RESIDUAL AND ESTIMATED CORRECTION

 AVERAGE HEAT FLUX                  6.645E-04   TIME AVG. HEAT FLUX   1.203E-03
 LARGEST RESIDUAL HEAT FLUX        -7.467E-08   AT NODE          6   DOF 11
 LARGEST INCREMENT OF TEMP.          151.       AT NODE          1   DOF 11
 LARGEST CORRECTION TO TEMP.        -6.40       AT NODE          7   DOF 11
 ESTIMATE OF TEMP.    CORRECTION   -9.192E-03
 HEAT FLUX EQUILIB. ACCEPTED BASED ON SMALL RESIDUAL AND ESTIMATED CORRECTION

 MAXIMUM NON-PRESCRIBED INCREMENT IN TEMPERATURE IS   -96.6    

 ITERATION SUMMARY FOR THE INCREMENT:   1 TOTAL ITERATIONS, OF WHICH
   0 ARE SEVERE DISCONTINUITY ITERATIONS AND  1 ARE EQUILIBRIUM ITERATIONS.

 TIME INCREMENT COMPLETED   37.8    ,  FRACTION OF STEP COMPLETED  0.307    
 STEP TIME COMPLETED        277.    ,  TOTAL TIME COMPLETED         277.    


  INCREMENT    23 STARTS. ATTEMPT NUMBER  1, TIME INCREMENT   37.8    
 
	UNSYMMETRIC NEW DIRECT SPARSE SOLVER RUNNING ON
 	1 HOST x 1 MPI RANK PER HOST x 1 THREAD PER RANK
        NUMBER OF EQUATIONS:  64
        NUMBER OF RHS:        1
        NUMBER OF FLOPS:      4.378e+04
        SOLVER ELAPSED TIME:  0ms

               CONVERGENCE CHECKS FOR EQUILIBRIUM ITERATION     1


 AVERAGE FORCE                      1.565E-02   TIME AVG. FORCE       3.997E-03
 LARGEST SCALED RESIDUAL FORCE      1.917E-05   AT NODE          2   DOF  1
  CORRESPONDING RESIDUAL FORCE      1.917E-05
 LARGEST INCREMENT OF DISP.        -6.021E-03   AT NODE          3   DOF  1
 LARGEST CORRECTION TO DISP.       -1.844E-04   AT NODE          3   DOF  1
 ESTIMATE OF DISP.    CORRECTION    3.382E-07
 FORCE     EQUILIB. ACCEPTED BASED ON SMALL RESIDUAL AND ESTIMATED CORRECTION

 AVERAGE HEAT FLUX                  6.950E-04   TIME AVG. HEAT FLUX   1.181E-03
 LARGEST RESIDUAL HEAT FLUX        -7.646E-08   AT NODE          6   DOF 11
 LARGEST INCREMENT OF TEMP.          151.       AT NODE          1   DOF 11
 LARGEST CORRECTION TO TEMP.       -0.137       AT NODE          7   DOF 11
          THE HEAT FLUX EQUILIBRIUM EQUATIONS HAVE CONVERGED

 MAXIMUM NON-PRESCRIBED INCREMENT IN TEMPERATURE IS   -96.7    

 ITERATION SUMMARY FOR THE INCREMENT:   1 TOTAL ITERATIONS, OF WHICH
   0 ARE SEVERE DISCONTINUITY ITERATIONS AND  1 ARE EQUILIBRIUM ITERATIONS.

 TIME INCREMENT COMPLETED   37.8    ,  FRACTION OF STEP COMPLETED  0.349    
 STEP TIME COMPLETED        314.    ,  TOTAL TIME COMPLETED         314.    


  INCREMENT    24 STARTS. ATTEMPT NUMBER  1, TIME INCREMENT   37.8    
 
	UNSYMMETRIC NEW DIRECT SPARSE SOLVER RUNNING ON
 	1 HOST x 1 MPI RANK PER HOST x 1 THREAD PER RANK
        NUMBER OF EQUATIONS:  64
        NUMBER OF RHS:        1
        NUMBER OF FLOPS:      4.378e+04
        SOLVER ELAPSED TIME:  0ms

               CONVERGENCE CHECKS FOR EQUILIBRIUM ITERATION     1


 AVERAGE FORCE                      1.777E-02   TIME AVG. FORCE       4.571E-03
 LARGEST SCALED RESIDUAL FORCE      2.015E-05   AT NODE          2   DOF  1
  CORRESPONDING RESIDUAL FORCE      2.015E-05
 LARGEST INCREMENT OF DISP.        -6.197E-03   AT NODE          3   DOF  1
 LARGEST CORRECTION TO DISP.       -1.759E-04   AT NODE          3   DOF  1
 ESTIMATE OF DISP.    CORRECTION    3.206E-07
 FORCE     EQUILIB. ACCEPTED BASED ON SMALL RESIDUAL AND ESTIMATED CORRECTION

 AVERAGE HEAT FLUX                  7.255E-04   TIME AVG. HEAT FLUX   1.162E-03
 LARGEST RESIDUAL HEAT FLUX        -7.371E-08   AT NODE          6   DOF 11
 LARGEST INCREMENT OF TEMP.          151.       AT NODE          1   DOF 11
 LARGEST CORRECTION TO TEMP.        -1.06       AT NODE          7   DOF 11
          THE HEAT FLUX EQUILIBRIUM EQUATIONS HAVE CONVERGED

 MAXIMUM NON-PRESCRIBED INCREMENT IN TEMPERATURE IS   -97.8    

 ITERATION SUMMARY FOR THE INCREMENT:   1 TOTAL ITERATIONS, OF WHICH
   0 ARE SEVERE DISCONTINUITY ITERATIONS AND  1 ARE EQUILIBRIUM ITERATIONS.

 TIME INCREMENT COMPLETED   37.8    ,  FRACTION OF STEP COMPLETED  0.391    
 STEP TIME COMPLETED        352.    ,  TOTAL TIME COMPLETED         352.    


  INCREMENT    25 STARTS. ATTEMPT NUMBER  1, TIME INCREMENT   37.8    
 
	UNSYMMETRIC NEW DIRECT SPARSE SOLVER RUNNING ON
 	1 HOST x 1 MPI RANK PER HOST x 1 THREAD PER RANK
        NUMBER OF EQUATIONS:  64
        NUMBER OF RHS:        1
        NUMBER OF FLOPS:      4.378e+04
        SOLVER ELAPSED TIME:  0ms

               CONVERGENCE CHECKS FOR EQUILIBRIUM ITERATION     1


 AVERAGE FORCE                      1.991E-02   TIME AVG. FORCE       5.184E-03
 LARGEST SCALED RESIDUAL FORCE     -1.162E-05   AT NODE          4   DOF  3
  CORRESPONDING RESIDUAL FORCE     -1.162E-05
 LARGEST INCREMENT OF DISP.        -6.262E-03   AT NODE          3   DOF  1
 LARGEST CORRECTION TO DISP.       -6.468E-05   AT NODE          3   DOF  1
 ESTIMATE OF DISP.    CORRECTION   -6.614E-08
 FORCE     EQUILIB. ACCEPTED BASED ON SMALL RESIDUAL AND ESTIMATED CORRECTION

 AVERAGE HEAT FLUX                  7.434E-04   TIME AVG. HEAT FLUX   1.145E-03
 LARGEST RESIDUAL HEAT FLUX        -1.067E-07   AT NODE          6   DOF 11
 LARGEST INCREMENT OF TEMP.          151.       AT NODE          1   DOF 11
 LARGEST CORRECTION TO TEMP.        -9.50       AT NODE          7   DOF 11
 ESTIMATE OF TEMP.    CORRECTION   -1.356E-02
 HEAT FLUX EQUILIB. ACCEPTED BASED ON SMALL RESIDUAL AND ESTIMATED CORRECTION

 MAXIMUM NON-PRESCRIBED INCREMENT IN TEMPERATURE IS   -107.    
 

 ***NOTE: THE TIME INTEGRATION ACCURACY TOLERANCE HAS BEEN EXCEEDED.


  INCREMENT    25 STARTS. ATTEMPT NUMBER  2, TIME INCREMENT   29.9    
 
	UNSYMMETRIC NEW DIRECT SPARSE SOLVER RUNNING ON
 	1 HOST x 1 MPI RANK PER HOST x 1 THREAD PER RANK
        NUMBER OF EQUATIONS:  64
        NUMBER OF RHS:        1
        NUMBER OF FLOPS:      4.378e+04
        SOLVER ELAPSED TIME:  0ms

               CONVERGENCE CHECKS FOR EQUILIBRIUM ITERATION     1


 AVERAGE FORCE                      1.945E-02   TIME AVG. FORCE       5.166E-03
 LARGEST SCALED RESIDUAL FORCE      6.982E-06   AT NODE          1   DOF  2
  CORRESPONDING RESIDUAL FORCE      6.982E-06
 LARGEST INCREMENT OF DISP.        -4.937E-03   AT NODE          3   DOF  1
 LARGEST CORRECTION TO DISP.       -4.616E-05   AT NODE          3   DOF  2
          THE FORCE     EQUILIBRIUM EQUATIONS HAVE CONVERGED

 AVERAGE HEAT FLUX                  7.386E-04   TIME AVG. HEAT FLUX   1.145E-03
 LARGEST RESIDUAL HEAT FLUX        -8.574E-08   AT NODE          6   DOF 11
 LARGEST INCREMENT OF TEMP.          120.       AT NODE          1   DOF 11
 LARGEST CORRECTION TO TEMP.        -7.99       AT NODE          7   DOF 11
 ESTIMATE OF TEMP.    CORRECTION   -8.567E-03
 HEAT FLUX EQUILIB. ACCEPTED BASED ON SMALL RESIDUAL AND ESTIMATED CORRECTION

 MAXIMUM NON-PRESCRIBED INCREMENT IN TEMPERATURE IS   -85.5    

 ITERATION SUMMARY FOR THE INCREMENT:   1 TOTAL ITERATIONS, OF WHICH
   0 ARE SEVERE DISCONTINUITY ITERATIONS AND  1 ARE EQUILIBRIUM ITERATIONS.

 TIME INCREMENT COMPLETED   29.9    ,  FRACTION OF STEP COMPLETED  0.425    
 STEP TIME COMPLETED        382.    ,  TOTAL TIME COMPLETED         382.    


  INCREMENT    26 STARTS. ATTEMPT NUMBER  1, TIME INCREMENT   29.9    
 
	UNSYMMETRIC NEW DIRECT SPARSE SOLVER RUNNING ON
 	1 HOST x 1 MPI RANK PER HOST x 1 THREAD PER RANK
        NUMBER OF EQUATIONS:  64
        NUMBER OF RHS:        1
        NUMBER OF FLOPS:      4.378e+04
        SOLVER ELAPSED TIME:  0ms

               CONVERGENCE CHECKS FOR EQUILIBRIUM ITERATION     1


 AVERAGE FORCE                      2.120E-02   TIME AVG. FORCE       5.783E-03
 LARGEST SCALED RESIDUAL FORCE      1.839E-05   AT NODE          2   DOF  1
  CORRESPONDING RESIDUAL FORCE      1.839E-05
 LARGEST INCREMENT OF DISP.        -5.083E-03   AT NODE          3   DOF  1
 LARGEST CORRECTION TO DISP.       -1.458E-04   AT NODE          3   DOF  1
 ESTIMATE OF DISP.    CORRECTION    3.577E-07
 FORCE     EQUILIB. ACCEPTED BASED ON SMALL RESIDUAL AND ESTIMATED CORRECTION

 AVERAGE HEAT FLUX                  7.683E-04   TIME AVG. HEAT FLUX   1.130E-03
 LARGEST RESIDUAL HEAT FLUX        -7.054E-08   AT NODE          6   DOF 11
 LARGEST INCREMENT OF TEMP.          120.       AT NODE          1   DOF 11
 LARGEST CORRECTION TO TEMP.         1.67       AT NODE          6   DOF 11
 ESTIMATE OF TEMP.    CORRECTION   -7.262E-03
 HEAT FLUX EQUILIB. ACCEPTED BASED ON SMALL RESIDUAL AND ESTIMATED CORRECTION

 MAXIMUM NON-PRESCRIBED INCREMENT IN TEMPERATURE IS   -84.0    

 ITERATION SUMMARY FOR THE INCREMENT:   1 TOTAL ITERATIONS, OF WHICH
   0 ARE SEVERE DISCONTINUITY ITERATIONS AND  1 ARE EQUILIBRIUM ITERATIONS.

 TIME INCREMENT COMPLETED   29.9    ,  FRACTION OF STEP COMPLETED  0.458    
 STEP TIME COMPLETED        412.    ,  TOTAL TIME COMPLETED         412.    


  INCREMENT    27 STARTS. ATTEMPT NUMBER  1, TIME INCREMENT   29.9    
 
	UNSYMMETRIC NEW DIRECT SPARSE SOLVER RUNNING ON
 	1 HOST x 1 MPI RANK PER HOST x 1 THREAD PER RANK
        NUMBER OF EQUATIONS:  64
        NUMBER OF RHS:        1
        NUMBER OF FLOPS:      4.378e+04
        SOLVER ELAPSED TIME:  0ms

               CONVERGENCE CHECKS FOR EQUILIBRIUM ITERATION     1


 AVERAGE FORCE                      2.296E-02   TIME AVG. FORCE       6.419E-03
 LARGEST SCALED RESIDUAL FORCE      1.140E-05   AT NODE          2   DOF  1
  CORRESPONDING RESIDUAL FORCE      1.140E-05
 LARGEST INCREMENT OF DISP.        -5.161E-03   AT NODE          3   DOF  1
 LARGEST CORRECTION TO DISP.       -7.849E-05   AT NODE          3   DOF  1
 ESTIMATE OF DISP.    CORRECTION    1.166E-07
 FORCE     EQUILIB. ACCEPTED BASED ON SMALL RESIDUAL AND ESTIMATED CORRECTION

 AVERAGE HEAT FLUX                  7.899E-04   TIME AVG. HEAT FLUX   1.118E-03
 LARGEST RESIDUAL HEAT FLUX        -3.456E-08   AT NODE          6   DOF 11
 LARGEST INCREMENT OF TEMP.          120.       AT NODE          1   DOF 11
 LARGEST CORRECTION TO TEMP.        -2.77       AT NODE          7   DOF 11
 ESTIMATE OF TEMP.    CORRECTION   -3.664E-03
 HEAT FLUX EQUILIB. ACCEPTED BASED ON SMALL RESIDUAL AND ESTIMATED CORRECTION

 MAXIMUM NON-PRESCRIBED INCREMENT IN TEMPERATURE IS   -86.7    

 ITERATION SUMMARY FOR THE INCREMENT:   1 TOTAL ITERATIONS, OF WHICH
   0 ARE SEVERE DISCONTINUITY ITERATIONS AND  1 ARE EQUILIBRIUM ITERATIONS.

 TIME INCREMENT COMPLETED   29.9    ,  FRACTION OF STEP COMPLETED  0.491    
 STEP TIME COMPLETED        442.    ,  TOTAL TIME COMPLETED         442.    


  INCREMENT    28 STARTS. ATTEMPT NUMBER  1, TIME INCREMENT   29.9    
 
	UNSYMMETRIC NEW DIRECT SPARSE SOLVER RUNNING ON
 	1 HOST x 1 MPI RANK PER HOST x 1 THREAD PER RANK
        NUMBER OF EQUATIONS:  64
        NUMBER OF RHS:        1
        NUMBER OF FLOPS:      4.378e+04
        SOLVER ELAPSED TIME:  0ms

               CONVERGENCE CHECKS FOR EQUILIBRIUM ITERATION     1


 AVERAGE FORCE                      2.476E-02   TIME AVG. FORCE       7.074E-03
 LARGEST SCALED RESIDUAL FORCE      1.202E-05   AT NODE          3   DOF  1
  CORRESPONDING RESIDUAL FORCE      1.202E-05
 LARGEST INCREMENT OF DISP.        -5.243E-03   AT NODE          3   DOF  1
 LARGEST CORRECTION TO DISP.       -8.237E-05   AT NODE          3   DOF  1
 ESTIMATE OF DISP.    CORRECTION    1.249E-07
 FORCE     EQUILIB. ACCEPTED BASED ON SMALL RESIDUAL AND ESTIMATED CORRECTION

 AVERAGE HEAT FLUX                  8.115E-04   TIME AVG. HEAT FLUX   1.107E-03
 LARGEST RESIDUAL HEAT FLUX        -3.499E-08   AT NODE          6   DOF 11
 LARGEST INCREMENT OF TEMP.          120.       AT NODE          1   DOF 11
 LARGEST CORRECTION TO TEMP.        -2.94       AT NODE          7   DOF 11
 ESTIMATE OF TEMP.    CORRECTION   -3.775E-03
 HEAT FLUX EQUILIB. ACCEPTED BASED ON SMALL RESIDUAL AND ESTIMATED CORRECTION

 MAXIMUM NON-PRESCRIBED INCREMENT IN TEMPERATURE IS   -89.7    

 ITERATION SUMMARY FOR THE INCREMENT:   1 TOTAL ITERATIONS, OF WHICH
   0 ARE SEVERE DISCONTINUITY ITERATIONS AND  1 ARE EQUILIBRIUM ITERATIONS.

 TIME INCREMENT COMPLETED   29.9    ,  FRACTION OF STEP COMPLETED  0.524    
 STEP TIME COMPLETED        472.    ,  TOTAL TIME COMPLETED         472.    


  INCREMENT    29 STARTS. ATTEMPT NUMBER  1, TIME INCREMENT   29.9    
 
	UNSYMMETRIC NEW DIRECT SPARSE SOLVER RUNNING ON
 	1 HOST x 1 MPI RANK PER HOST x 1 THREAD PER RANK
        NUMBER OF EQUATIONS:  64
        NUMBER OF RHS:        1
        NUMBER OF FLOPS:      4.378e+04
        SOLVER ELAPSED TIME:  0ms

               CONVERGENCE CHECKS FOR EQUILIBRIUM ITERATION     1


 AVERAGE FORCE                      2.661E-02   TIME AVG. FORCE       7.748E-03
 LARGEST SCALED RESIDUAL FORCE      1.267E-04   AT NODE          7   DOF  2
  CORRESPONDING RESIDUAL FORCE      1.267E-04
 LARGEST INCREMENT OF DISP.        -5.310E-03   AT NODE          3   DOF  1
 LARGEST CORRECTION TO DISP.       -6.694E-05   AT NODE          3   DOF  1
          FORCE     EQUILIBRIUM NOT ACHIEVED WITHIN TOLERANCE.

 AVERAGE HEAT FLUX                  8.431E-04   TIME AVG. HEAT FLUX   1.098E-03
 LARGEST RESIDUAL HEAT FLUX        -2.615E-05   AT NODE          5   DOF 11
 LARGEST INCREMENT OF TEMP.          120.       AT NODE          1   DOF 11
 LARGEST CORRECTION TO TEMP.        -10.9       AT NODE          7   DOF 11
          HEAT FLUX EQUILIBRIUM NOT ACHIEVED WITHIN TOLERANCE.
 
	UNSYMMETRIC NEW DIRECT SPARSE SOLVER RUNNING ON
 	1 HOST x 1 MPI RANK PER HOST x 1 THREAD PER RANK
        NUMBER OF EQUATIONS:  64
        NUMBER OF RHS:        1
        NUMBER OF FLOPS:      4.378e+04
        SOLVER ELAPSED TIME:  0ms

               CONVERGENCE CHECKS FOR EQUILIBRIUM ITERATION     2


 AVERAGE FORCE                      2.656E-02   TIME AVG. FORCE       7.746E-03
 LARGEST SCALED RESIDUAL FORCE     -4.781E-06   AT NODE          2   DOF  1
  CORRESPONDING RESIDUAL FORCE     -4.781E-06
 LARGEST INCREMENT OF DISP.        -5.271E-03   AT NODE          3   DOF  1
 LARGEST CORRECTION TO DISP.        3.959E-05   AT NODE          3   DOF  1
          THE FORCE     EQUILIBRIUM EQUATIONS HAVE CONVERGED

 AVERAGE HEAT FLUX                  1.651E-03   TIME AVG. HEAT FLUX   1.126E-03
 LARGEST RESIDUAL HEAT FLUX         1.528E-08   AT NODE          7   DOF 11
 LARGEST INCREMENT OF TEMP.          120.       AT NODE          1   DOF 11
 LARGEST CORRECTION TO TEMP.        -8.38       AT NODE          8   DOF 11
 ESTIMATE OF TEMP.    CORRECTION    4.898E-03
 HEAT FLUX EQUILIB. ACCEPTED BASED ON SMALL RESIDUAL AND ESTIMATED CORRECTION

 MAXIMUM NON-PRESCRIBED INCREMENT IN TEMPERATURE IS   -98.1    

 ITERATION SUMMARY FOR THE INCREMENT:   2 TOTAL ITERATIONS, OF WHICH
   0 ARE SEVERE DISCONTINUITY ITERATIONS AND  2 ARE EQUILIBRIUM ITERATIONS.

 TIME INCREMENT COMPLETED   29.9    ,  FRACTION OF STEP COMPLETED  0.558    
 STEP TIME COMPLETED        502.    ,  TOTAL TIME COMPLETED         502.    


  INCREMENT    30 STARTS. ATTEMPT NUMBER  1, TIME INCREMENT   29.9    
 
	UNSYMMETRIC NEW DIRECT SPARSE SOLVER RUNNING ON
 	1 HOST x 1 MPI RANK PER HOST x 1 THREAD PER RANK
        NUMBER OF EQUATIONS:  64
        NUMBER OF RHS:        1
        NUMBER OF FLOPS:      4.378e+04
        SOLVER ELAPSED TIME:  0ms

               CONVERGENCE CHECKS FOR EQUILIBRIUM ITERATION     1


 AVERAGE FORCE                      2.841E-02   TIME AVG. FORCE       8.435E-03
 LARGEST SCALED RESIDUAL FORCE      1.647E-05   AT NODE          3   DOF  1
  CORRESPONDING RESIDUAL FORCE      1.647E-05
 LARGEST INCREMENT OF DISP.        -5.367E-03   AT NODE          3   DOF  1
 LARGEST CORRECTION TO DISP.       -9.594E-05   AT NODE          3   DOF  1
 ESTIMATE OF DISP.    CORRECTION    1.924E-07
 FORCE     EQUILIB. ACCEPTED BASED ON SMALL RESIDUAL AND ESTIMATED CORRECTION

 AVERAGE HEAT FLUX                  8.516E-04   TIME AVG. HEAT FLUX   1.116E-03
 LARGEST RESIDUAL HEAT FLUX        -7.618E-08   AT NODE          6   DOF 11
 LARGEST INCREMENT OF TEMP.          120.       AT NODE          1   DOF 11
 LARGEST CORRECTION TO TEMP.        -14.5       AT NODE          6   DOF 11
 ESTIMATE OF TEMP.    CORRECTION   -2.736E-02
 HEAT FLUX EQUILIB. ACCEPTED BASED ON SMALL RESIDUAL AND ESTIMATED CORRECTION

 MAXIMUM NON-PRESCRIBED INCREMENT IN TEMPERATURE IS   -102.    
 

 ***NOTE: THE TIME INTEGRATION ACCURACY TOLERANCE HAS BEEN EXCEEDED.


  INCREMENT    30 STARTS. ATTEMPT NUMBER  2, TIME INCREMENT   25.0    
 
	UNSYMMETRIC NEW DIRECT SPARSE SOLVER RUNNING ON
 	1 HOST x 1 MPI RANK PER HOST x 1 THREAD PER RANK
        NUMBER OF EQUATIONS:  64
        NUMBER OF RHS:        1
        NUMBER OF FLOPS:      4.378e+04
        SOLVER ELAPSED TIME:  0ms

               CONVERGENCE CHECKS FOR EQUILIBRIUM ITERATION     1


 AVERAGE FORCE                      2.810E-02   TIME AVG. FORCE       8.424E-03
 LARGEST SCALED RESIDUAL FORCE      1.253E-05   AT NODE          3   DOF  1
  CORRESPONDING RESIDUAL FORCE      1.253E-05
 LARGEST INCREMENT OF DISP.        -4.466E-03   AT NODE          3   DOF  1
 LARGEST CORRECTION TO DISP.       -7.182E-05   AT NODE          3   DOF  1
 ESTIMATE OF DISP.    CORRECTION    1.438E-07
 FORCE     EQUILIB. ACCEPTED BASED ON SMALL RESIDUAL AND ESTIMATED CORRECTION

 AVERAGE HEAT FLUX                  8.491E-04   TIME AVG. HEAT FLUX   1.116E-03
 LARGEST RESIDUAL HEAT FLUX        -6.635E-08   AT NODE          6   DOF 11
 LARGEST INCREMENT OF TEMP.          99.8       AT NODE          1   DOF 11
 LARGEST CORRECTION TO TEMP.        -13.2       AT NODE          6   DOF 11
 ESTIMATE OF TEMP.    CORRECTION   -2.048E-02
 HEAT FLUX EQUILIB. ACCEPTED BASED ON SMALL RESIDUAL AND ESTIMATED CORRECTION

 MAXIMUM NON-PRESCRIBED INCREMENT IN TEMPERATURE IS   -86.1    

 ITERATION SUMMARY FOR THE INCREMENT:   1 TOTAL ITERATIONS, OF WHICH
   0 ARE SEVERE DISCONTINUITY ITERATIONS AND  1 ARE EQUILIBRIUM ITERATIONS.

 TIME INCREMENT COMPLETED   25.0    ,  FRACTION OF STEP COMPLETED  0.585    
 STEP TIME COMPLETED        527.    ,  TOTAL TIME COMPLETED         527.    


  INCREMENT    31 STARTS. ATTEMPT NUMBER  1, TIME INCREMENT   25.0    
 
	UNSYMMETRIC NEW DIRECT SPARSE SOLVER RUNNING ON
 	1 HOST x 1 MPI RANK PER HOST x 1 THREAD PER RANK
        NUMBER OF EQUATIONS:  64
        NUMBER OF RHS:        1
        NUMBER OF FLOPS:      4.378e+04
        SOLVER ELAPSED TIME:  0ms

               CONVERGENCE CHECKS FOR EQUILIBRIUM ITERATION     1


 AVERAGE FORCE                      2.966E-02   TIME AVG. FORCE       9.109E-03
 LARGEST SCALED RESIDUAL FORCE      1.172E-05   AT NODE          2   DOF  1
  CORRESPONDING RESIDUAL FORCE      1.172E-05
 LARGEST INCREMENT OF DISP.        -4.525E-03   AT NODE          3   DOF  1
 LARGEST CORRECTION TO DISP.       -5.942E-05   AT NODE          3   DOF  1
 ESTIMATE OF DISP.    CORRECTION    1.180E-07
 FORCE     EQUILIB. ACCEPTED BASED ON SMALL RESIDUAL AND ESTIMATED CORRECTION

 AVERAGE HEAT FLUX                  8.699E-04   TIME AVG. HEAT FLUX   1.108E-03
 LARGEST RESIDUAL HEAT FLUX        -3.328E-08   AT NODE          6   DOF 11
 LARGEST INCREMENT OF TEMP.          99.8       AT NODE          1   DOF 11
 LARGEST CORRECTION TO TEMP.         5.56       AT NODE          6   DOF 11
 ESTIMATE OF TEMP.    CORRECTION    8.115E-03
 HEAT FLUX EQUILIB. ACCEPTED BASED ON SMALL RESIDUAL AND ESTIMATED CORRECTION

 MAXIMUM NON-PRESCRIBED INCREMENT IN TEMPERATURE IS   -82.3    

 ITERATION SUMMARY FOR THE INCREMENT:   1 TOTAL ITERATIONS, OF WHICH
   0 ARE SEVERE DISCONTINUITY ITERATIONS AND  1 ARE EQUILIBRIUM ITERATIONS.

 TIME INCREMENT COMPLETED   25.0    ,  FRACTION OF STEP COMPLETED  0.613    
 STEP TIME COMPLETED        552.    ,  TOTAL TIME COMPLETED         552.    


  INCREMENT    32 STARTS. ATTEMPT NUMBER  1, TIME INCREMENT   25.0    
 
	UNSYMMETRIC NEW DIRECT SPARSE SOLVER RUNNING ON
 	1 HOST x 1 MPI RANK PER HOST x 1 THREAD PER RANK
        NUMBER OF EQUATIONS:  64
        NUMBER OF RHS:        1
        NUMBER OF FLOPS:      4.378e+04
        SOLVER ELAPSED TIME:  0ms

               CONVERGENCE CHECKS FOR EQUILIBRIUM ITERATION     1


 AVERAGE FORCE                      3.123E-02   TIME AVG. FORCE       9.801E-03
 LARGEST SCALED RESIDUAL FORCE      7.239E-06   AT NODE          3   DOF  1
  CORRESPONDING RESIDUAL FORCE      7.239E-06
 LARGEST INCREMENT OF DISP.        -4.586E-03   AT NODE          3   DOF  1
 LARGEST CORRECTION TO DISP.       -6.086E-05   AT NODE          3   DOF  1
 ESTIMATE OF DISP.    CORRECTION    7.334E-08
 FORCE     EQUILIB. ACCEPTED BASED ON SMALL RESIDUAL AND ESTIMATED CORRECTION

 AVERAGE HEAT FLUX                  1.782E-03   TIME AVG. HEAT FLUX   1.130E-03
 LARGEST RESIDUAL HEAT FLUX        -1.812E-08   AT NODE          6   DOF 11
 LARGEST INCREMENT OF TEMP.          99.8       AT NODE          1   DOF 11
 LARGEST CORRECTION TO TEMP.        -2.04       AT NODE          6   DOF 11
 ESTIMATE OF TEMP.    CORRECTION   -1.986E-03
 HEAT FLUX EQUILIB. ACCEPTED BASED ON SMALL RESIDUAL AND ESTIMATED CORRECTION

 MAXIMUM NON-PRESCRIBED INCREMENT IN TEMPERATURE IS   -82.6    

 ITERATION SUMMARY FOR THE INCREMENT:   1 TOTAL ITERATIONS, OF WHICH
   0 ARE SEVERE DISCONTINUITY ITERATIONS AND  1 ARE EQUILIBRIUM ITERATIONS.

 TIME INCREMENT COMPLETED   25.0    ,  FRACTION OF STEP COMPLETED  0.641    
 STEP TIME COMPLETED        577.    ,  TOTAL TIME COMPLETED         577.    


  INCREMENT    33 STARTS. ATTEMPT NUMBER  1, TIME INCREMENT   25.0    
 
	UNSYMMETRIC NEW DIRECT SPARSE SOLVER RUNNING ON
 	1 HOST x 1 MPI RANK PER HOST x 1 THREAD PER RANK
        NUMBER OF EQUATIONS:  64
        NUMBER OF RHS:        1
        NUMBER OF FLOPS:      4.378e+04
        SOLVER ELAPSED TIME:  0ms

               CONVERGENCE CHECKS FOR EQUILIBRIUM ITERATION     1


 AVERAGE FORCE                      3.282E-02   TIME AVG. FORCE       1.050E-02
 LARGEST SCALED RESIDUAL FORCE      2.326E-05   AT NODE          7   DOF  3
  CORRESPONDING RESIDUAL FORCE      2.326E-05
 LARGEST INCREMENT OF DISP.        -4.590E-03   AT NODE          3   DOF  1
 LARGEST CORRECTION TO DISP.       -3.914E-05   AT NODE          3   DOF  2
          THE FORCE     EQUILIBRIUM EQUATIONS HAVE CONVERGED

 AVERAGE HEAT FLUX                  1.033E-03   TIME AVG. HEAT FLUX   1.127E-03
 LARGEST RESIDUAL HEAT FLUX         2.397E-08   AT NODE          7   DOF 11
 LARGEST INCREMENT OF TEMP.          99.8       AT NODE          1   DOF 11
 LARGEST CORRECTION TO TEMP.        -5.11       AT NODE          7   DOF 11
 ESTIMATE OF TEMP.    CORRECTION    2.354E-03
 HEAT FLUX EQUILIB. ACCEPTED BASED ON SMALL RESIDUAL AND ESTIMATED CORRECTION

 MAXIMUM NON-PRESCRIBED INCREMENT IN TEMPERATURE IS   -87.7    

 ITERATION SUMMARY FOR THE INCREMENT:   1 TOTAL ITERATIONS, OF WHICH
   0 ARE SEVERE DISCONTINUITY ITERATIONS AND  1 ARE EQUILIBRIUM ITERATIONS.

 TIME INCREMENT COMPLETED   25.0    ,  FRACTION OF STEP COMPLETED  0.669    
 STEP TIME COMPLETED        602.    ,  TOTAL TIME COMPLETED         602.    


  INCREMENT    34 STARTS. ATTEMPT NUMBER  1, TIME INCREMENT   25.0    
 
	UNSYMMETRIC NEW DIRECT SPARSE SOLVER RUNNING ON
 	1 HOST x 1 MPI RANK PER HOST x 1 THREAD PER RANK
        NUMBER OF EQUATIONS:  64
        NUMBER OF RHS:        1
        NUMBER OF FLOPS:      4.378e+04
        SOLVER ELAPSED TIME:  0ms

               CONVERGENCE CHECKS FOR EQUILIBRIUM ITERATION     1


 AVERAGE FORCE                      3.592E-02   TIME AVG. FORCE       1.125E-02
 LARGEST SCALED RESIDUAL FORCE     -1.346E-05   AT NODE          7   DOF  2
  CORRESPONDING RESIDUAL FORCE     -1.346E-05
 LARGEST INCREMENT OF DISP.        -4.649E-03   AT NODE          3   DOF  1
 LARGEST CORRECTION TO DISP.       -5.864E-05   AT NODE          3   DOF  1
 ESTIMATE OF DISP.    CORRECTION   -1.280E-07
 FORCE     EQUILIB. ACCEPTED BASED ON SMALL RESIDUAL AND ESTIMATED CORRECTION

 AVERAGE HEAT FLUX                  1.843E-03   TIME AVG. HEAT FLUX   1.148E-03
 LARGEST RESIDUAL HEAT FLUX        -1.457E-08   AT NODE          6   DOF 11
 LARGEST INCREMENT OF TEMP.          99.8       AT NODE          1   DOF 11
 LARGEST CORRECTION TO TEMP.        -2.42       AT NODE          7   DOF 11
 ESTIMATE OF TEMP.    CORRECTION   -1.236E-03
 HEAT FLUX EQUILIB. ACCEPTED BASED ON SMALL RESIDUAL AND ESTIMATED CORRECTION

 MAXIMUM NON-PRESCRIBED INCREMENT IN TEMPERATURE IS   -90.1    

 ITERATION SUMMARY FOR THE INCREMENT:   1 TOTAL ITERATIONS, OF WHICH
   0 ARE SEVERE DISCONTINUITY ITERATIONS AND  1 ARE EQUILIBRIUM ITERATIONS.

 TIME INCREMENT COMPLETED   25.0    ,  FRACTION OF STEP COMPLETED  0.696    
 STEP TIME COMPLETED        627.    ,  TOTAL TIME COMPLETED         627.    


  INCREMENT    35 STARTS. ATTEMPT NUMBER  1, TIME INCREMENT   25.0    
 
	UNSYMMETRIC NEW DIRECT SPARSE SOLVER RUNNING ON
 	1 HOST x 1 MPI RANK PER HOST x 1 THREAD PER RANK
        NUMBER OF EQUATIONS:  64
        NUMBER OF RHS:        1
        NUMBER OF FLOPS:      4.378e+04
        SOLVER ELAPSED TIME:  0ms

               CONVERGENCE CHECKS FOR EQUILIBRIUM ITERATION     1


 AVERAGE FORCE                      3.605E-02   TIME AVG. FORCE       1.195E-02
 LARGEST SCALED RESIDUAL FORCE      9.422E-05   AT NODE          3   DOF  1
  CORRESPONDING RESIDUAL FORCE      9.422E-05
 LARGEST INCREMENT OF DISP.        -4.681E-03   AT NODE          3   DOF  1
 LARGEST CORRECTION TO DISP.       -3.160E-05   AT NODE          3   DOF  1
          FORCE     EQUILIBRIUM NOT ACHIEVED WITHIN TOLERANCE.

 AVERAGE HEAT FLUX                  9.474E-04   TIME AVG. HEAT FLUX   1.142E-03
 LARGEST RESIDUAL HEAT FLUX        -3.131E-05   AT NODE          7   DOF 11
 LARGEST INCREMENT OF TEMP.          99.8       AT NODE          1   DOF 11
 LARGEST CORRECTION TO TEMP.        -2.50       AT NODE          7   DOF 11
          HEAT FLUX EQUILIBRIUM NOT ACHIEVED WITHIN TOLERANCE.
 
	UNSYMMETRIC NEW DIRECT SPARSE SOLVER RUNNING ON
 	1 HOST x 1 MPI RANK PER HOST x 1 THREAD PER RANK
        NUMBER OF EQUATIONS:  64
        NUMBER OF RHS:        1
        NUMBER OF FLOPS:      4.378e+04
        SOLVER ELAPSED TIME:  0ms

               CONVERGENCE CHECKS FOR EQUILIBRIUM ITERATION     2


 AVERAGE FORCE                      3.603E-02   TIME AVG. FORCE       1.195E-02
 LARGEST SCALED RESIDUAL FORCE     -1.586E-05   AT NODE          3   DOF  1
  CORRESPONDING RESIDUAL FORCE     -1.586E-05
 LARGEST INCREMENT OF DISP.        -4.669E-03   AT NODE          3   DOF  1
 LARGEST CORRECTION TO DISP.       -1.499E-05   AT NODE          7   DOF  3
          THE FORCE     EQUILIBRIUM EQUATIONS HAVE CONVERGED

 AVERAGE HEAT FLUX                  1.872E-03   TIME AVG. HEAT FLUX   1.168E-03
 LARGEST RESIDUAL HEAT FLUX         1.117E-08   AT NODE          7   DOF 11
 LARGEST INCREMENT OF TEMP.         -101.       AT NODE          7   DOF 11
 LARGEST CORRECTION TO TEMP.        -8.44       AT NODE          7   DOF 11
 ESTIMATE OF TEMP.    CORRECTION    3.227E-03
 HEAT FLUX EQUILIB. ACCEPTED BASED ON SMALL RESIDUAL AND ESTIMATED CORRECTION

 MAXIMUM NON-PRESCRIBED INCREMENT IN TEMPERATURE IS   -101.    
 

 ***NOTE: THE TIME INTEGRATION ACCURACY TOLERANCE HAS BEEN EXCEEDED.


  INCREMENT    35 STARTS. ATTEMPT NUMBER  2, TIME INCREMENT   21.0    
 
	UNSYMMETRIC NEW DIRECT SPARSE SOLVER RUNNING ON
 	1 HOST x 1 MPI RANK PER HOST x 1 THREAD PER RANK
        NUMBER OF EQUATIONS:  64
        NUMBER OF RHS:        1
        NUMBER OF FLOPS:      4.378e+04
        SOLVER ELAPSED TIME:  0ms

               CONVERGENCE CHECKS FOR EQUILIBRIUM ITERATION     1


 AVERAGE FORCE                      3.578E-02   TIME AVG. FORCE       1.195E-02
 LARGEST SCALED RESIDUAL FORCE     -1.936E-05   AT NODE          5   DOF  2
  CORRESPONDING RESIDUAL FORCE     -1.936E-05
 LARGEST INCREMENT OF DISP.        -3.908E-03   AT NODE          3   DOF  1
 LARGEST CORRECTION TO DISP.       -3.388E-05   AT NODE          3   DOF  2
          THE FORCE     EQUILIBRIUM EQUATIONS HAVE CONVERGED

 AVERAGE HEAT FLUX                  9.321E-04   TIME AVG. HEAT FLUX   1.141E-03
 LARGEST RESIDUAL HEAT FLUX         2.479E-08   AT NODE          7   DOF 11
 LARGEST INCREMENT OF TEMP.          83.9       AT NODE          1   DOF 11
 LARGEST CORRECTION TO TEMP.        -3.32       AT NODE          7   DOF 11
 ESTIMATE OF TEMP.    CORRECTION    1.747E-03
 HEAT FLUX EQUILIB. ACCEPTED BASED ON SMALL RESIDUAL AND ESTIMATED CORRECTION

 MAXIMUM NON-PRESCRIBED INCREMENT IN TEMPERATURE IS   -79.1    

 ITERATION SUMMARY FOR THE INCREMENT:   1 TOTAL ITERATIONS, OF WHICH
   0 ARE SEVERE DISCONTINUITY ITERATIONS AND  1 ARE EQUILIBRIUM ITERATIONS.

[...]
 HEAT FLUX EQUILIB. ACCEPTED BASED ON SMALL RESIDUAL AND ESTIMATED CORRECTION

 MAXIMUM NON-PRESCRIBED INCREMENT IN TEMPERATURE IS   -89.4    

 ITERATION SUMMARY FOR THE INCREMENT:   1 TOTAL ITERATIONS, OF WHICH
   0 ARE SEVERE DISCONTINUITY ITERATIONS AND  1 ARE EQUILIBRIUM ITERATIONS.

 TIME INCREMENT COMPLETED   21.0    ,  FRACTION OF STEP COMPLETED  0.836    
 STEP TIME COMPLETED        753.    ,  TOTAL TIME COMPLETED         753.    


  INCREMENT    41 STARTS. ATTEMPT NUMBER  1, TIME INCREMENT   21.0    
 
	UNSYMMETRIC NEW DIRECT SPARSE SOLVER RUNNING ON
 	1 HOST x 1 MPI RANK PER HOST x 1 THREAD PER RANK
        NUMBER OF EQUATIONS:  64
        NUMBER OF RHS:        1
        NUMBER OF FLOPS:      4.378e+04
        SOLVER ELAPSED TIME:  0ms

               CONVERGENCE CHECKS FOR EQUILIBRIUM ITERATION     1


 AVERAGE FORCE                      4.406E-02   TIME AVG. FORCE       1.632E-02
 LARGEST SCALED RESIDUAL FORCE      1.385E-05   AT NODE          7   DOF  3
  CORRESPONDING RESIDUAL FORCE      1.385E-05
 LARGEST INCREMENT OF DISP.        -4.014E-03   AT NODE          3   DOF  1
 LARGEST CORRECTION TO DISP.       -2.157E-05   AT NODE          3   DOF  2
          THE FORCE     EQUILIBRIUM EQUATIONS HAVE CONVERGED

 AVERAGE HEAT FLUX                  2.027E-03   TIME AVG. HEAT FLUX   1.228E-03
 LARGEST RESIDUAL HEAT FLUX         1.296E-08   AT NODE          7   DOF 11
 LARGEST INCREMENT OF TEMP.         -91.6       AT NODE          7   DOF 11
 LARGEST CORRECTION TO TEMP.        -2.22       AT NODE          7   DOF 11
 ESTIMATE OF TEMP.    CORRECTION    9.623E-04
 HEAT FLUX EQUILIB. ACCEPTED BASED ON SMALL RESIDUAL AND ESTIMATED CORRECTION

 MAXIMUM NON-PRESCRIBED INCREMENT IN TEMPERATURE IS   -91.6    

 ITERATION SUMMARY FOR THE INCREMENT:   1 TOTAL ITERATIONS, OF WHICH
   0 ARE SEVERE DISCONTINUITY ITERATIONS AND  1 ARE EQUILIBRIUM ITERATIONS.

 TIME INCREMENT COMPLETED   21.0    ,  FRACTION OF STEP COMPLETED  0.860    
 STEP TIME COMPLETED        774.    ,  TOTAL TIME COMPLETED         774.    


  INCREMENT    42 STARTS. ATTEMPT NUMBER  1, TIME INCREMENT   21.0    
 
	UNSYMMETRIC NEW DIRECT SPARSE SOLVER RUNNING ON
 	1 HOST x 1 MPI RANK PER HOST x 1 THREAD PER RANK
        NUMBER OF EQUATIONS:  64
        NUMBER OF RHS:        1
        NUMBER OF FLOPS:      4.378e+04
        SOLVER ELAPSED TIME:  0ms

               CONVERGENCE CHECKS FOR EQUILIBRIUM ITERATION     1


 AVERAGE FORCE                      4.961E-02   TIME AVG. FORCE       1.711E-02
 LARGEST SCALED RESIDUAL FORCE     -1.266E-05   AT NODE          2   DOF  1
  CORRESPONDING RESIDUAL FORCE     -1.266E-05
 LARGEST INCREMENT OF DISP.        -4.041E-03   AT NODE          3   DOF  1
 LARGEST CORRECTION TO DISP.       -2.694E-05   AT NODE          3   DOF  1
          THE FORCE     EQUILIBRIUM EQUATIONS HAVE CONVERGED

 AVERAGE HEAT FLUX                  2.058E-03   TIME AVG. HEAT FLUX   1.248E-03
 LARGEST RESIDUAL HEAT FLUX         4.156E-09   AT NODE          6   DOF 11
 LARGEST INCREMENT OF TEMP.         -94.9       AT NODE          6   DOF 11
 LARGEST CORRECTION TO TEMP.        -6.39       AT NODE          6   DOF 11
 ESTIMATE OF TEMP.    CORRECTION    7.270E-04
 HEAT FLUX EQUILIB. ACCEPTED BASED ON SMALL RESIDUAL AND ESTIMATED CORRECTION

 MAXIMUM NON-PRESCRIBED INCREMENT IN TEMPERATURE IS   -94.9    

 ITERATION SUMMARY FOR THE INCREMENT:   1 TOTAL ITERATIONS, OF WHICH
   0 ARE SEVERE DISCONTINUITY ITERATIONS AND  1 ARE EQUILIBRIUM ITERATIONS.

 TIME INCREMENT COMPLETED   21.0    ,  FRACTION OF STEP COMPLETED  0.883    
 STEP TIME COMPLETED        795.    ,  TOTAL TIME COMPLETED         795.    


  INCREMENT    43 STARTS. ATTEMPT NUMBER  1, TIME INCREMENT   21.0    
 
	UNSYMMETRIC NEW DIRECT SPARSE SOLVER RUNNING ON
 	1 HOST x 1 MPI RANK PER HOST x 1 THREAD PER RANK
        NUMBER OF EQUATIONS:  64
        NUMBER OF RHS:        1
        NUMBER OF FLOPS:      4.378e+04
        SOLVER ELAPSED TIME:  0ms

               CONVERGENCE CHECKS FOR EQUILIBRIUM ITERATION     1


 AVERAGE FORCE                      4.893E-02   TIME AVG. FORCE       1.785E-02
 LARGEST SCALED RESIDUAL FORCE      4.993E-05   AT NODE          7   DOF  2
  CORRESPONDING RESIDUAL FORCE      4.993E-05
 LARGEST INCREMENT OF DISP.        -4.018E-03   AT NODE          3   DOF  1
 LARGEST CORRECTION TO DISP.       -4.238E-05   AT NODE          3   DOF  2
 ESTIMATE OF DISP.    CORRECTION    4.605E-07
 FORCE     EQUILIB. ACCEPTED BASED ON SMALL RESIDUAL AND ESTIMATED CORRECTION

 AVERAGE HEAT FLUX                  1.044E-03   TIME AVG. HEAT FLUX   1.243E-03
 LARGEST RESIDUAL HEAT FLUX        -2.565E-05   AT NODE          7   DOF 11
 LARGEST INCREMENT OF TEMP.         -96.2       AT NODE          7   DOF 11
 LARGEST CORRECTION TO TEMP.        -5.23       AT NODE          5   DOF 11
          HEAT FLUX EQUILIBRIUM NOT ACHIEVED WITHIN TOLERANCE.
 
	UNSYMMETRIC NEW DIRECT SPARSE SOLVER RUNNING ON
 	1 HOST x 1 MPI RANK PER HOST x 1 THREAD PER RANK
        NUMBER OF EQUATIONS:  64
        NUMBER OF RHS:        1
        NUMBER OF FLOPS:      4.378e+04
        SOLVER ELAPSED TIME:  0ms

               CONVERGENCE CHECKS FOR EQUILIBRIUM ITERATION     2


 AVERAGE FORCE                      4.688E-02   TIME AVG. FORCE       1.780E-02
 LARGEST SCALED RESIDUAL FORCE     -1.407E-05   AT NODE          3   DOF  1
  CORRESPONDING RESIDUAL FORCE     -1.407E-05
 LARGEST INCREMENT OF DISP.        -4.015E-03   AT NODE          3   DOF  1
 LARGEST CORRECTION TO DISP.        1.051E-05   AT NODE          7   DOF  2
          THE FORCE     EQUILIBRIUM EQUATIONS HAVE CONVERGED

 AVERAGE HEAT FLUX                  2.068E-03   TIME AVG. HEAT FLUX   1.267E-03
 LARGEST RESIDUAL HEAT FLUX         6.375E-09   AT NODE          7   DOF 11
 LARGEST INCREMENT OF TEMP.         -102.       AT NODE          7   DOF 11
 LARGEST CORRECTION TO TEMP.        -6.22       AT NODE          7   DOF 11
 ESTIMATE OF TEMP.    CORRECTION    1.546E-03
 HEAT FLUX EQUILIB. ACCEPTED BASED ON SMALL RESIDUAL AND ESTIMATED CORRECTION

 MAXIMUM NON-PRESCRIBED INCREMENT IN TEMPERATURE IS   -102.    
 

 ***NOTE: THE TIME INTEGRATION ACCURACY TOLERANCE HAS BEEN EXCEEDED.


  INCREMENT    43 STARTS. ATTEMPT NUMBER  2, TIME INCREMENT   17.4    
 
	UNSYMMETRIC NEW DIRECT SPARSE SOLVER RUNNING ON
 	1 HOST x 1 MPI RANK PER HOST x 1 THREAD PER RANK
        NUMBER OF EQUATIONS:  64
        NUMBER OF RHS:        1
        NUMBER OF FLOPS:      4.378e+04
        SOLVER ELAPSED TIME:  0ms

               CONVERGENCE CHECKS FOR EQUILIBRIUM ITERATION     1


 AVERAGE FORCE                      4.665E-02   TIME AVG. FORCE       1.780E-02
 LARGEST SCALED RESIDUAL FORCE     -2.413E-05   AT NODE          3   DOF  1
  CORRESPONDING RESIDUAL FORCE     -2.413E-05
 LARGEST INCREMENT OF DISP.        -3.344E-03   AT NODE          3   DOF  1
 LARGEST CORRECTION TO DISP.       -3.413E-05   AT NODE          3   DOF  2
 ESTIMATE OF DISP.    CORRECTION   -2.335E-07
 FORCE     EQUILIB. ACCEPTED BASED ON SMALL RESIDUAL AND ESTIMATED CORRECTION

 AVERAGE HEAT FLUX                  1.661E-03   TIME AVG. HEAT FLUX   1.258E-03
 LARGEST RESIDUAL HEAT FLUX         2.554E-08   AT NODE          7   DOF 11
 LARGEST INCREMENT OF TEMP.         -84.7       AT NODE          7   DOF 11
 LARGEST CORRECTION TO TEMP.        -7.77       AT NODE          7   DOF 11
 ESTIMATE OF TEMP.    CORRECTION    3.418E-03
 HEAT FLUX EQUILIB. ACCEPTED BASED ON SMALL RESIDUAL AND ESTIMATED CORRECTION

 MAXIMUM NON-PRESCRIBED INCREMENT IN TEMPERATURE IS   -84.7    

 ITERATION SUMMARY FOR THE INCREMENT:   1 TOTAL ITERATIONS, OF WHICH
   0 ARE SEVERE DISCONTINUITY ITERATIONS AND  1 ARE EQUILIBRIUM ITERATIONS.

 TIME INCREMENT COMPLETED   17.4    ,  FRACTION OF STEP COMPLETED  0.902    
 STEP TIME COMPLETED        812.    ,  TOTAL TIME COMPLETED         812.    


  INCREMENT    44 STARTS. ATTEMPT NUMBER  1, TIME INCREMENT   17.4    
 
	UNSYMMETRIC NEW DIRECT SPARSE SOLVER RUNNING ON
 	1 HOST x 1 MPI RANK PER HOST x 1 THREAD PER RANK
        NUMBER OF EQUATIONS:  64
        NUMBER OF RHS:        1
        NUMBER OF FLOPS:      4.378e+04
        SOLVER ELAPSED TIME:  0ms

               CONVERGENCE CHECKS FOR EQUILIBRIUM ITERATION     1


 AVERAGE FORCE                      4.781E-02   TIME AVG. FORCE       1.848E-02
 LARGEST SCALED RESIDUAL FORCE     -4.695E-05   AT NODE          2   DOF  1
  CORRESPONDING RESIDUAL FORCE     -4.695E-05
 LARGEST INCREMENT OF DISP.        -3.317E-03   AT NODE          3   DOF  1
 LARGEST CORRECTION TO DISP.       -4.467E-05   AT NODE          1   DOF  2
 ESTIMATE OF DISP.    CORRECTION   -6.992E-07
 FORCE     EQUILIB. ACCEPTED BASED ON SMALL RESIDUAL AND ESTIMATED CORRECTION

 AVERAGE HEAT FLUX                  1.033E-03   TIME AVG. HEAT FLUX   1.253E-03
 LARGEST RESIDUAL HEAT FLUX         5.341E-08   AT NODE          6   DOF 11
 LARGEST INCREMENT OF TEMP.         -83.8       AT NODE          7   DOF 11
 LARGEST CORRECTION TO TEMP.        -6.48       AT NODE          5   DOF 11
 ESTIMATE OF TEMP.    CORRECTION    4.331E-03
 HEAT FLUX EQUILIB. ACCEPTED BASED ON SMALL RESIDUAL AND ESTIMATED CORRECTION

 MAXIMUM NON-PRESCRIBED INCREMENT IN TEMPERATURE IS   -83.8    

 ITERATION SUMMARY FOR THE INCREMENT:   1 TOTAL ITERATIONS, OF WHICH
   0 ARE SEVERE DISCONTINUITY ITERATIONS AND  1 ARE EQUILIBRIUM ITERATIONS.

 TIME INCREMENT COMPLETED   17.4    ,  FRACTION OF STEP COMPLETED  0.922    
 STEP TIME COMPLETED        830.    ,  TOTAL TIME COMPLETED         830.    


  INCREMENT    45 STARTS. ATTEMPT NUMBER  1, TIME INCREMENT   17.4    
 
	UNSYMMETRIC NEW DIRECT SPARSE SOLVER RUNNING ON
 	1 HOST x 1 MPI RANK PER HOST x 1 THREAD PER RANK
        NUMBER OF EQUATIONS:  64
        NUMBER OF RHS:        1
        NUMBER OF FLOPS:      4.378e+04
        SOLVER ELAPSED TIME:  0ms

               CONVERGENCE CHECKS FOR EQUILIBRIUM ITERATION     1


 AVERAGE FORCE                      4.899E-02   TIME AVG. FORCE       1.916E-02
 LARGEST SCALED RESIDUAL FORCE      2.257E-05   AT NODE          3   DOF  1
  CORRESPONDING RESIDUAL FORCE      2.257E-05
 LARGEST INCREMENT OF DISP.        -3.370E-03   AT NODE          3   DOF  1
 LARGEST CORRECTION TO DISP.       -5.352E-05   AT NODE          3   DOF  1
 ESTIMATE OF DISP.    CORRECTION    3.787E-07
 FORCE     EQUILIB. ACCEPTED BASED ON SMALL RESIDUAL AND ESTIMATED CORRECTION

 AVERAGE HEAT FLUX                  1.056E-03   TIME AVG. HEAT FLUX   1.248E-03
 LARGEST RESIDUAL HEAT FLUX        -3.829E-08   AT NODE          7   DOF 11
 LARGEST INCREMENT OF TEMP.         -85.6       AT NODE          6   DOF 11
 LARGEST CORRECTION TO TEMP.        -4.80       AT NODE          6   DOF 11
 ESTIMATE OF TEMP.    CORRECTION    7.527E-03
 HEAT FLUX EQUILIB. ACCEPTED BASED ON SMALL RESIDUAL AND ESTIMATED CORRECTION

 MAXIMUM NON-PRESCRIBED INCREMENT IN TEMPERATURE IS   -85.6    

 ITERATION SUMMARY FOR THE INCREMENT:   1 TOTAL ITERATIONS, OF WHICH
   0 ARE SEVERE DISCONTINUITY ITERATIONS AND  1 ARE EQUILIBRIUM ITERATIONS.

 TIME INCREMENT COMPLETED   17.4    ,  FRACTION OF STEP COMPLETED  0.941    
 STEP TIME COMPLETED        847.    ,  TOTAL TIME COMPLETED         847.    


  INCREMENT    46 STARTS. ATTEMPT NUMBER  1, TIME INCREMENT   17.4    
 
	UNSYMMETRIC NEW DIRECT SPARSE SOLVER RUNNING ON
 	1 HOST x 1 MPI RANK PER HOST x 1 THREAD PER RANK
        NUMBER OF EQUATIONS:  64
        NUMBER OF RHS:        1
        NUMBER OF FLOPS:      4.378e+04
        SOLVER ELAPSED TIME:  0ms

               CONVERGENCE CHECKS FOR EQUILIBRIUM ITERATION     1


 AVERAGE FORCE                      5.016E-02   TIME AVG. FORCE       1.983E-02
 LARGEST SCALED RESIDUAL FORCE     -4.524E-05   AT NODE          3   DOF  1
  CORRESPONDING RESIDUAL FORCE     -4.524E-05
 LARGEST INCREMENT OF DISP.        -3.294E-03   AT NODE          3   DOF  1
 LARGEST CORRECTION TO DISP.        7.587E-05   AT NODE          3   DOF  1
 ESTIMATE OF DISP.    CORRECTION    1.111E-06
 FORCE     EQUILIB. ACCEPTED BASED ON SMALL RESIDUAL AND ESTIMATED CORRECTION

 AVERAGE HEAT FLUX                  1.055E-03   TIME AVG. HEAT FLUX   1.244E-03
 LARGEST RESIDUAL HEAT FLUX         7.274E-08   AT NODE          7   DOF 11
 LARGEST INCREMENT OF TEMP.         -87.3       AT NODE          8   DOF 11
 LARGEST CORRECTION TO TEMP.        -8.76       AT NODE          5   DOF 11
 ESTIMATE OF TEMP.    CORRECTION    8.542E-03
 HEAT FLUX EQUILIB. ACCEPTED BASED ON SMALL RESIDUAL AND ESTIMATED CORRECTION

 MAXIMUM NON-PRESCRIBED INCREMENT IN TEMPERATURE IS   -87.3    

 ITERATION SUMMARY FOR THE INCREMENT:   1 TOTAL ITERATIONS, OF WHICH
   0 ARE SEVERE DISCONTINUITY ITERATIONS AND  1 ARE EQUILIBRIUM ITERATIONS.

 TIME INCREMENT COMPLETED   17.4    ,  FRACTION OF STEP COMPLETED  0.961    
 STEP TIME COMPLETED        865.    ,  TOTAL TIME COMPLETED         865.    


  INCREMENT    47 STARTS. ATTEMPT NUMBER  1, TIME INCREMENT   17.4    
 
	UNSYMMETRIC NEW DIRECT SPARSE SOLVER RUNNING ON
 	1 HOST x 1 MPI RANK PER HOST x 1 THREAD PER RANK
        NUMBER OF EQUATIONS:  64
        NUMBER OF RHS:        1
        NUMBER OF FLOPS:      4.378e+04
        SOLVER ELAPSED TIME:  0ms

               CONVERGENCE CHECKS FOR EQUILIBRIUM ITERATION     1


 AVERAGE FORCE                      5.131E-02   TIME AVG. FORCE       2.050E-02
 LARGEST SCALED RESIDUAL FORCE     -3.378E-05   AT NODE          2   DOF  1
  CORRESPONDING RESIDUAL FORCE     -3.378E-05
 LARGEST INCREMENT OF DISP.        -3.316E-03   AT NODE          3   DOF  1
 LARGEST CORRECTION TO DISP.       -2.214E-05   AT NODE          3   DOF  1
          THE FORCE     EQUILIBRIUM EQUATIONS HAVE CONVERGED

 AVERAGE HEAT FLUX                  2.113E-03   TIME AVG. HEAT FLUX   1.263E-03
 LARGEST RESIDUAL HEAT FLUX         1.587E-08   AT NODE          6   DOF 11
 LARGEST INCREMENT OF TEMP.         -89.4       AT NODE          7   DOF 11
 LARGEST CORRECTION TO TEMP.        -8.38       AT NODE          6   DOF 11
 ESTIMATE OF TEMP.    CORRECTION    1.953E-03
 HEAT FLUX EQUILIB. ACCEPTED BASED ON SMALL RESIDUAL AND ESTIMATED CORRECTION

 MAXIMUM NON-PRESCRIBED INCREMENT IN TEMPERATURE IS   -89.4    

 ITERATION SUMMARY FOR THE INCREMENT:   1 TOTAL ITERATIONS, OF WHICH
   0 ARE SEVERE DISCONTINUITY ITERATIONS AND  1 ARE EQUILIBRIUM ITERATIONS.

 TIME INCREMENT COMPLETED   17.4    ,  FRACTION OF STEP COMPLETED  0.980    
 STEP TIME COMPLETED        882.    ,  TOTAL TIME COMPLETED         882.    


  INCREMENT    48 STARTS. ATTEMPT NUMBER  1, TIME INCREMENT   17.4    
 
	UNSYMMETRIC NEW DIRECT SPARSE SOLVER RUNNING ON
 	1 HOST x 1 MPI RANK PER HOST x 1 THREAD PER RANK
        NUMBER OF EQUATIONS:  64
        NUMBER OF RHS:        1
        NUMBER OF FLOPS:      4.378e+04
        SOLVER ELAPSED TIME:  0ms

               CONVERGENCE CHECKS FOR EQUILIBRIUM ITERATION     1


 AVERAGE FORCE                      5.247E-02   TIME AVG. FORCE       2.117E-02
 LARGEST SCALED RESIDUAL FORCE     -1.776E-05   AT NODE          2   DOF  1
  CORRESPONDING RESIDUAL FORCE     -1.776E-05
 LARGEST INCREMENT OF DISP.        -3.289E-03   AT NODE          3   DOF  1
 LARGEST CORRECTION TO DISP.       -2.796E-05   AT NODE          2   DOF  1
          THE FORCE     EQUILIBRIUM EQUATIONS HAVE CONVERGED

 AVERAGE HEAT FLUX                  1.063E-03   TIME AVG. HEAT FLUX   1.258E-03
 LARGEST RESIDUAL HEAT FLUX         2.970E-08   AT NODE          7   DOF 11
 LARGEST INCREMENT OF TEMP.         -91.3       AT NODE          7   DOF 11
 LARGEST CORRECTION TO TEMP.        -1.97       AT NODE          7   DOF 11
 ESTIMATE OF TEMP.    CORRECTION    1.896E-03
 HEAT FLUX EQUILIB. ACCEPTED BASED ON SMALL RESIDUAL AND ESTIMATED CORRECTION

 MAXIMUM NON-PRESCRIBED INCREMENT IN TEMPERATURE IS   -91.3    

 ITERATION SUMMARY FOR THE INCREMENT:   1 TOTAL ITERATIONS, OF WHICH
   0 ARE SEVERE DISCONTINUITY ITERATIONS AND  1 ARE EQUILIBRIUM ITERATIONS.

 TIME INCREMENT COMPLETED   17.4    ,  FRACTION OF STEP COMPLETED  0.999    
 STEP TIME COMPLETED        899.    ,  TOTAL TIME COMPLETED         899.    


  INCREMENT    49 STARTS. ATTEMPT NUMBER  1, TIME INCREMENT  0.544    
 
	UNSYMMETRIC NEW DIRECT SPARSE SOLVER RUNNING ON
 	1 HOST x 1 MPI RANK PER HOST x 1 THREAD PER RANK
        NUMBER OF EQUATIONS:  64
        NUMBER OF RHS:        1
        NUMBER OF FLOPS:      4.378e+04
        SOLVER ELAPSED TIME:  0ms

               CONVERGENCE CHECKS FOR EQUILIBRIUM ITERATION     1


 AVERAGE FORCE                      5.251E-02   TIME AVG. FORCE       2.181E-02
 LARGEST SCALED RESIDUAL FORCE      7.826E-06   AT NODE          2   DOF  1
  CORRESPONDING RESIDUAL FORCE      7.826E-06
 LARGEST INCREMENT OF DISP.        -1.209E-04   AT NODE          3   DOF  1
 LARGEST CORRECTION TO DISP.       -1.830E-05   AT NODE          3   DOF  1
          DISP.    CORRECTION TOO LARGE COMPARED TO DISP.    INCREMENT

 AVERAGE HEAT FLUX                  2.332E-03   TIME AVG. HEAT FLUX   1.280E-03
 LARGEST RESIDUAL HEAT FLUX        -1.697E-08   AT NODE          5   DOF 11
 LARGEST INCREMENT OF TEMP.         -2.37       AT NODE          7   DOF 11
 LARGEST CORRECTION TO TEMP.        0.479       AT NODE          7   DOF 11
 ESTIMATE OF TEMP.    CORRECTION   -3.254E-05
 HEAT FLUX EQUILIB. ACCEPTED BASED ON SMALL RESIDUAL AND ESTIMATED CORRECTION
 
	UNSYMMETRIC NEW DIRECT SPARSE SOLVER RUNNING ON
 	1 HOST x 1 MPI RANK PER HOST x 1 THREAD PER RANK
        NUMBER OF EQUATIONS:  64
        NUMBER OF RHS:        1
        NUMBER OF FLOPS:      4.378e+04
        SOLVER ELAPSED TIME:  0ms

               CONVERGENCE CHECKS FOR EQUILIBRIUM ITERATION     2


 AVERAGE FORCE                      0.105       TIME AVG. FORCE       2.288E-02
 LARGEST SCALED RESIDUAL FORCE     -3.682E-07   AT NODE          3   DOF  1
  CORRESPONDING RESIDUAL FORCE     -3.682E-07
 LARGEST INCREMENT OF DISP.        -1.185E-04   AT NODE          3   DOF  1
 LARGEST CORRECTION TO DISP.        2.363E-06   AT NODE          3   DOF  1
 ESTIMATE OF DISP.    CORRECTION   -1.112E-07
 FORCE     EQUILIB. ACCEPTED BASED ON SMALL RESIDUAL AND ESTIMATED CORRECTION

 AVERAGE HEAT FLUX                  2.332E-03   TIME AVG. HEAT FLUX   1.280E-03
 LARGEST RESIDUAL HEAT FLUX         1.533E-09   AT NODE          6   DOF 11
 LARGEST INCREMENT OF TEMP.         -2.37       AT NODE          7   DOF 11
 LARGEST CORRECTION TO TEMP.       -3.845E-05   AT NODE          7   DOF 11
          THE HEAT FLUX EQUILIBRIUM EQUATIONS HAVE CONVERGED

 MAXIMUM NON-PRESCRIBED INCREMENT IN TEMPERATURE IS   -2.37    

 ITERATION SUMMARY FOR THE INCREMENT:   2 TOTAL ITERATIONS, OF WHICH
   0 ARE SEVERE DISCONTINUITY ITERATIONS AND  2 ARE EQUILIBRIUM ITERATIONS.

 TIME INCREMENT COMPLETED  0.544    ,  FRACTION OF STEP COMPLETED   1.00    
 STEP TIME COMPLETED        900.    ,  TOTAL TIME COMPLETED         900.    


          THE ANALYSIS HAS BEEN COMPLETED



     ANALYSIS SUMMARY:
     TOTAL OF         49  INCREMENTS
                       4  CUTBACKS IN AUTOMATIC INCREMENTATION
                      66  ITERATIONS INCLUDING CONTACT ITERATIONS IF PRESENT
                      66  PASSES THROUGH THE EQUATION SOLVER OF WHICH 
                      66  INVOLVE MATRIX DECOMPOSITION, INCLUDING
                       0  DECOMPOSITION(S) OF THE MASS MATRIX
                       1  REORDERING OF EQUATIONS TO MINIMIZE WAVEFRONT
                       0  ADDITIONAL RESIDUAL EVALUATIONS FOR LINE SEARCHES
                       0  ADDITIONAL OPERATOR EVALUATIONS FOR LINE SEARCHES
                       4  WARNING MESSAGES DURING USER INPUT PROCESSING
                       1  WARNING MESSAGES DURING ANALYSIS
                       0  ANALYSIS WARNINGS ARE NUMERICAL PROBLEM MESSAGES
                       0  ANALYSIS WARNINGS ARE NEGATIVE EIGENVALUE MESSAGES
                       0  ERROR MESSAGES



     JOB TIME SUMMARY
       USER TIME (SEC)      =      1.2    
       SYSTEM TIME (SEC)    =     8.00E-02
       TOTAL CPU TIME (SEC) =      1.3    
       WALLCLOCK TIME (SEC) =            2
       MEMORY PEAK (GB)     =            2
