 Abaqus/Standard 2024                  DATE 27-Feb-2026 TIME 20:20:07
 SUMMARY OF JOB INFORMATION:
 STEP  INC ATT SEVERE EQUIL TOTAL  TOTAL      STEP       INC OF       DOF    IF
               DISCON ITERS ITERS  TIME/    TIME/LPF    TIME/LPF    MONITOR RIKS
               ITERS               FREQ
   1     1   1     0     3     3  0.100      0.100      0.1000    
   1     2   1     0     3     3  0.200      0.200      0.1000    
   1     3   1     0     2     2  0.300      0.300      0.1000    
   1     4   1     0     1     1  0.450      0.450      0.1500    
   1     5   1     0     1     1  0.675      0.675      0.2250    
   1     6   1     0     1     1  1.01       1.01       0.3375    
   1     7   1     0     1     1  1.52       1.52       0.5063    
   1     8   1     0     1     1  2.28       2.28       0.7594    
   1     9   1     0     1     1  3.42       3.42       1.139     
   1    10   1     0     1     1  5.13       5.13       1.709     
   1    11   1     0     1     1  7.69       7.69       2.563     
   1    12   1     0     1     1  11.5       11.5       3.844     
   1    13   1     0     1     1  17.3       17.3       5.767     
   1    14   1     0     1     1  25.9       25.9       8.650     
   1    15   1     0     1     1  38.9       38.9       12.97     
   1    16   1     0     1     1  58.4       58.4       19.46     
   1    17   1     0     2     2  87.6       87.6       29.19     
   1    18   1     0     2     2  125.       125.       37.80     
   1    19   1     0     2     2  163.       163.       37.80     
   1    20   1     0     1     1  201.       201.       37.80     
   1    21   1     0     2     2  239.       239.       37.80     
   1    22   1     0     1     1  277.       277.       37.80     
   1    23   1     0     1     1  314.       314.       37.80     
   1    24   1     0     1     1  352.       352.       37.80     
   1    25   1U    0     1     1  352.       352.       37.80     
   1    25   2     0     1     1  382.       382.       29.95     
   1    26   1     0     1     1  412.       412.       29.95     
   1    27   1     0     1     1  442.       442.       29.95     
   1    28   1     0     1     1  472.       472.       29.95     
   1    29   1     0     2     2  502.       502.       29.95     
   1    30   1U    0     1     1  502.       502.       29.95     
   1    30   2     0     1     1  527.       527.       24.97     
   1    31   1     0     1     1  552.       552.       24.97     
   1    32   1     0     1     1  577.       577.       24.97     
   1    33   1     0     1     1  602.       602.       24.97     
   1    34   1     0     1     1  627.       627.       24.97     
   1    35   1U    0     2     2  627.       627.       24.97     
   1    35   2     0     1     1  648.       648.       21.01     
   1    36   1     0     1     1  669.       669.       21.01     
   1    37   1     0     1     1  690.       690.       21.01     
   1    38   1     0     1     1  711.       711.       21.01     
   1    39   1     0     1     1  732.       732.       21.01     
   1    40   1     0     1     1  753.       753.       21.01     
   1    41   1     0     1     1  774.       774.       21.01     
   1    42   1     0     1     1  795.       795.       21.01     
   1    43   1U    0     2     2  795.       795.       21.01     
   1    43   2     0     1     1  812.       812.       17.44     
   1    44   1     0     1     1  830.       830.       17.44     
   1    45   1     0     1     1  847.       847.       17.44     
   1    46   1     0     1     1  865.       865.       17.44     
   1    47   1     0     1     1  882.       882.       17.44     
   1    48   1     0     1     1  899.       899.       17.44     
   1    49   1     0     2     2  900.       900.       0.5438    
                          
 THE ANALYSIS HAS COMPLETED SUCCESSFULLY
