 Abaqus/Standard 2024                  DATE 27-Feb-2026 TIME 11:41:13
 SUMMARY OF JOB INFORMATION:
 STEP  INC ATT SEVERE EQUIL TOTAL  TOTAL      STEP       INC OF       DOF    IF
               DISCON ITERS ITERS  TIME/    TIME/LPF    TIME/LPF    MONITOR RIKS
               ITERS               FREQ
   1     1   1     0     3     3  0.100      0.100      0.1000    
   1     2   1     0     3     3  0.200      0.200      0.1000    
   1     3   1     0     2     2  0.300      0.300      0.1000    
   1     4   1     0     1     1  0.450      0.450      0.1500    
   1     5   1     0     1     1  0.675      0.675      0.2250    
   1     6   1     0     1     1  1.01       1.01       0.3375    
   1     7   1     0     1     1  1.52       1.52       0.5063    
   1     8   1     0     1     1  2.28       2.28       0.7594    
   1     9   1     0     1     1  3.42       3.42       1.139     
   1    10   1     0     1     1  5.13       5.13       1.709     
   1    11   1     0     1     1  7.69       7.69       2.563     
   1    12   1     0     1     1  11.5       11.5       3.844     
   1    13   1     0     1     1  17.3       17.3       5.767     
   1    14   1     0     1     1  25.9       25.9       8.650     
   1    15   1     0     2     2  38.9       38.9       12.97     
   1    16   1     0     2     2  58.4       58.4       19.46     
   1    17   1     0     2     2  87.6       87.6       29.19     
   1    18   1     0     2     2  125.       125.       37.38     
   1    19   1     0     2     2  162.       162.       37.38     
   1    20   1     0     2     2  200.       200.       37.38     
   1    21   1     0     2     2  237.       237.       37.38     
   1    22   1U    0     2     2  237.       237.       37.38     
   1    22   2     0     2     2  269.       269.       31.50     
   1    23   1     0     2     2  300.       300.       31.50     
   1    24   1     0     2     2  332.       332.       31.50     
   1    25   1     0     2     2  363.       363.       31.50     
   1    26   1     0     3     3  395.       395.       31.50     
   1    27   1U    0     2     2  395.       395.       31.50     
   1    27   2     0     2     2  421.       421.       26.05     
   1    28   1     0     2     2  447.       447.       26.05     
   1    29   1     0     2     2  473.       473.       26.05     
   1    30   1     0     2     2  499.       499.       26.05     
   1    31   1U    0     2     2  499.       499.       26.05     
   1    31   2     0     2     2  521.       521.       21.98     
   1    32   1     0     2     2  543.       543.       21.98     
   1    33   1     0     2     2  565.       565.       21.98     
   1    34   1U    0     2     2  565.       565.       21.98     
   1    34   2     0     2     2  582.       582.       17.57     
   1    35   1     0     2     2  600.       600.       17.57     
   1    36   1     0     2     2  617.       617.       17.57     
   1    37   1     0     2     2  635.       635.       17.57     
   1    38   1     0     2     2  653.       653.       17.57     
   1    39   1     0     2     2  670.       670.       17.57     
   1    40   1U    0     2     2  670.       670.       17.57     
   1    40   2     0     2     2  685.       685.       14.62     
   1    41   1     0     2     2  699.       699.       14.62     
   1    42   1     0     2     2  714.       714.       14.62     
   1    43   1     0     2     2  729.       729.       14.62     
   1    44   1     0     2     2  743.       743.       14.62     
   1    45   1U    0     2     2  743.       743.       14.62     
   1    45   2     0     2     2  755.       755.       11.90     
   1    46   1     0     2     2  767.       767.       11.90     
   1    47   1     0     1     1  779.       779.       11.90     
   1    48   1     0     1     1  791.       791.       11.90     
   1    49   1     0     1     1  803.       803.       11.90     
   1    50   1     0     1     1  815.       815.       11.90     
   1    51   1     0     1     1  827.       827.       11.90     
   1    52   1     0     1     1  839.       839.       11.90     
   1    53   1U    0     2     2  839.       839.       11.90     
   1    53   2     0     1     1  848.       848.       9.857     
   1    54   1     0     2     2  858.       858.       9.857     
   1    55   1     0     1     1  868.       868.       9.857     
   1    56   1     0     1     1  878.       878.       9.857     
   1    57   1     0     3     3  888.       888.       9.857     
   1    58   1     0     1     1  898.       898.       9.857     
   1    59   1     0     1     1  900.       900.       2.352     
                          
 THE ANALYSIS HAS COMPLETED SUCCESSFULLY
