1

   Abaqus 2024                                  Date 27-Feb-2026   Time 11:41:13
   For use by Supplied by Team-SolidSQUAD under license from Dassault Systemes or its subsidiary.

 Sample UEL usage                                                                
                                                                                 
 STEP    1     INCREMENT     1     STEP TIME    0.00    


                        S T E P       1     C O U P L E D - T E M P E R A T U R E - D I S P L A C E M E N T   A N A L Y S I S


                                                                                          

     AUTOMATIC TIME CONTROL WITH -
          A SUGGESTED INITIAL TIME INCREMENT OF                0.100    
          AND A TOTAL TIME PERIOD OF                            900.    
          THE MINIMUM TIME INCREMENT ALLOWED IS                1.000E-06
          THE MAXIMUM TIME INCREMENT ALLOWED IS                 100.    

          CREEP AND SWELLING EFFECTS ARE OMITTED IN THIS STEP

     THE SIZE OF THE TIME INCREMENT IS CONTROLLED BY -
          THE TEMPERATURE CHANGE PER INCREMENT NOT EXCEEDING            100.    
          THE RATE DEPENDENCY WILL BE CONSIDERED IN THIS STEP

          CREEP AND SWELLING EFFECTS WILL BE IGNORED.

 CONVERGENCE TOLERANCE PARAMETERS FOR FORCE    
     CRITERION FOR RESIDUAL FORCE     FOR A NONLINEAR PROBLEM          5.000E-03
     CRITERION FOR DISP.    CORRECTION IN A NONLINEAR PROBLEM          1.000E-02
     INITIAL VALUE OF TIME AVERAGE FORCE                               1.000E-02
     AVERAGE FORCE     IS TIME AVERAGE FORCE    
     ALTERNATE CRIT. FOR RESIDUAL FORCE     FOR A NONLINEAR PROBLEM    2.000E-02
     CRITERION FOR ZERO FORCE     RELATIVE TO TIME AVRG. FORCE         1.000E-05
     CRITERION FOR RESIDUAL FORCE     WHEN THERE IS ZERO FLUX          1.000E-05
     CRITERION FOR DISP.    CORRECTION WHEN THERE IS ZERO FLUX         1.000E-03
     CRITERION FOR RESIDUAL FORCE     FOR A LINEAR INCREMENT           1.000E-08
     FIELD CONVERSION RATIO                                             1.00    
     CRITERION FOR ZERO FORCE     REL. TO TIME AVRG. MAX. FORCE        1.000E-05
     CRITERION FOR ZERO DISP.    RELATIVE TO CHARACTERISTIC LENGTH     1.000E-08

 CONVERGENCE TOLERANCE PARAMETERS FOR HEAT FLUX
     CRITERION FOR RESIDUAL HEAT FLUX FOR A NONLINEAR PROBLEM          5.000E-03
     CRITERION FOR TEMP.    CORRECTION IN A NONLINEAR PROBLEM          1.000E-02
     INITIAL VALUE OF TIME AVERAGE HEAT FLUX                           1.000E-02
     AVERAGE HEAT FLUX IS TIME AVERAGE HEAT FLUX
     ALTERNATE CRIT. FOR RESIDUAL HEAT FLUX FOR A NONLINEAR PROBLEM    2.000E-02
     CRITERION FOR ZERO HEAT FLUX RELATIVE TO TIME AVRG. HEAT FLUX     1.000E-05
     CRITERION FOR RESIDUAL HEAT FLUX WHEN THERE IS ZERO FLUX          1.000E-05
     CRITERION FOR TEMP.    CORRECTION WHEN THERE IS ZERO FLUX         1.000E-03
     CRITERION FOR RESIDUAL HEAT FLUX FOR A LINEAR INCREMENT           1.000E-08
     FIELD CONVERSION RATIO                                             1.00    
     CRITERION FOR ZERO HEAT FLUX REL. TO TIME AVRG. MAX. HEAT FLUX    1.000E-05

     VOLUMETRIC STRAIN COMPATIBILITY TOLERANCE FOR HYBRID SOLIDS       1.000E-05
     AXIAL STRAIN COMPATIBILITY TOLERANCE FOR HYBRID BEAMS             1.000E-05
     TRANS. SHEAR STRAIN COMPATIBILITY TOLERANCE FOR HYBRID BEAMS      1.000E-05
     SOFT CONTACT CONSTRAINT COMPATIBILITY TOLERANCE FOR P>P0          5.000E-03
     SOFT CONTACT CONSTRAINT COMPATIBILITY TOLERANCE FOR P=0.0         0.100    
     CONTACT FORCE ERROR TOLERANCE FOR CONVERT SDI=YES                 1.00    
     DISPLACEMENT COMPATIBILITY TOLERANCE FOR DCOUP ELEMENTS           1.000E-05
     ROTATION COMPATIBILITY TOLERANCE FOR DCOUP ELEMENTS               1.000E-05

 EQUILIBRIUM WILL BE CHECKED FOR SEVERE DISCONTINUITY ITERATIONS

 TIME INCREMENTATION CONTROL PARAMETERS:
     FIRST EQUILIBRIUM ITERATION FOR CONSECUTIVE DIVERGENCE CHECK              4
     EQUILIBRIUM ITERATION AT WHICH LOG. CONVERGENCE RATE CHECK BEGINS         8
     EQUILIBRIUM ITERATION AFTER WHICH ALTERNATE RESIDUAL IS USED              9
     MAXIMUM EQUILIBRIUM ITERATIONS ALLOWED                                   16
     EQUILIBRIUM ITERATION COUNT FOR CUT-BACK IN NEXT INCREMENT               10
     MAXIMUM EQUILIB. ITERS IN TWO INCREMENTS FOR TIME INCREMENT INCREASE      4
     MAXIMUM ITERATIONS FOR SEVERE DISCONTINUITIES                            50
     MAXIMUM ATTEMPTS ALLOWED IN AN INCREMENT                                  5
     MAXIMUM DISCON. ITERS IN TWO INCREMENTS FOR TIME INCREMENT INCREASE      50
     MAXIMUM CONTACT AUGMENTATIONS FOR *SURFACE BEHAVIOR,AUGMENTED LAGRANGE   50
     CONSECUTIVE INCS MEETING TIME INTEG. TOL. FOR TIME INC. INCREASE          3
     CUT-BACK FACTOR AFTER DIVERGENCE                                 0.2500    
     CUT-BACK FACTOR FOR TOO SLOW CONVERGENCE                         0.5000    
     CUT-BACK FACTOR AFTER TOO MANY EQUILIBRIUM ITERATIONS            0.7500    
     CUT-BACK FACTOR AFTER TOO MANY SEVERE DISCONTINUITY ITERATIONS   0.2500    
     CUT-BACK FACTOR AFTER PROBLEMS IN ELEMENT ASSEMBLY               0.2500    
     INCREASE FACTOR AFTER TWO INCREMENTS THAT CONVERGE QUICKLY        1.500    
     MAX. TIME INCREMENT INCREASE FACTOR ALLOWED                       1.500    
     MAX. TIME INCREMENT INCREASE FACTOR ALLOWED (DYNAMICS)            1.250    
     MAX. TIME INCREMENT INCREASE FACTOR ALLOWED (DIFFUSION)           2.000    
     MINIMUM TIME INCREMENT RATIO FOR EXTRAPOLATION TO OCCUR          0.1000    
     CUT-BACK FACTOR WHEN TIME INTEGRATION ACCURACY TOL. EXCEEDED     0.8500    
     MAX. RATIO OF TIME INTEG. MEASURE TO TOL. FOR TIME INC. INCREASE 0.7500    
     INCREASE FACTOR FOR TIME INCREMENT WHEN POSSIBLE                 0.8000    
     MIN. TIME INC. INCREASE FACTOR IN LINEAR TRANSIENT PROBLEMS      0.9500    
     MAX. RATIO OF TIME INCREMENT TO STABILITY LIMIT                   1.000    
     FRACTION OF STABILITY LIMIT FOR NEW TIME INCREMENT               0.9500    
     TIME INCREMENT INCREASE FACTOR BEFORE A TIME POINT                1.000    
     GLOBAL STABILIZATION CONTROL IS NOT USED

          PRINT OF INCREMENT NUMBER, TIME, ETC., EVERY    1  INCREMENTS

     THE MAXIMUM NUMBER OF INCREMENTS IN THIS STEP IS                   50000

          LARGE DISPLACEMENT THEORY WILL BE USED

          UNSYMMETRIC MATRIX STORAGE AND SOLUTION WILL BE USED

     LINEAR EXTRAPOLATION WILL BE USED

     CHARACTERISTIC ELEMENT LENGTH     0.500    

     DETAILS REGARDING ACTUAL SOLUTION WAVEFRONT REQUESTED

     DETAILED OUTPUT OF DIAGNOSTICS TO DATABASE REQUESTED

     PRINT OF INCREMENT NUMBER, TIME, ETC., TO THE MESSAGE FILE EVERY     1  INCREMENTS

     COLLECTING MODEL CONSTRAINT INFORMATION FOR OVERCONSTRAINT CHECKS

     COLLECTING STEP CONSTRAINT INFORMATION FOR OVERCONSTRAINT CHECKS


  INCREMENT     1 STARTS. ATTEMPT NUMBER  1, TIME INCREMENT  0.100    

 ***WARNING: THERE ARE 2 UNCONNECTED REGIONS IN THE MODEL.

 ***NOTE: SFM TYPE SURFACE ELEMENTS USED TO DEFINE CONTACT SURFACES NOT PART OF 
          A RIGID BODY MAY INCREASE THE NUMBER OR UNCONNECTED REGIONS REPORTED.
 
	UNSYMMETRIC NEW DIRECT SPARSE SOLVER RUNNING ON
 	1 HOST x 1 MPI RANK PER HOST x 1 THREAD PER RANK
        NUMBER OF EQUATIONS:  64
        NUMBER OF RHS:        1
        NUMBER OF FLOPS:      4.378e+04
        SOLVER ELAPSED TIME:  5ms

               CONVERGENCE CHECKS FOR EQUILIBRIUM ITERATION     1


 AVERAGE FORCE                      3.269E-04   TIME AVG. FORCE       3.269E-04
 LARGEST SCALED RESIDUAL FORCE      1.201E-03   AT NODE          7   DOF  2
  CORRESPONDING RESIDUAL FORCE      1.201E-03
 LARGEST INCREMENT OF DISP.         1.240E-03   AT NODE          2   DOF  1
 LARGEST CORRECTION TO DISP.        1.240E-03   AT NODE          2   DOF  1
          FORCE     EQUILIBRIUM NOT ACHIEVED WITHIN TOLERANCE.

 AVERAGE HEAT FLUX                  6.638E-03   TIME AVG. HEAT FLUX   6.638E-03
 LARGEST RESIDUAL HEAT FLUX        -1.290E-04   AT NODE          6   DOF 11
 LARGEST INCREMENT OF TEMP.         -15.2       AT NODE          7   DOF 11
 LARGEST CORRECTION TO TEMP.        -15.2       AT NODE          7   DOF 11
          HEAT FLUX EQUILIBRIUM NOT ACHIEVED WITHIN TOLERANCE.
 
	UNSYMMETRIC NEW DIRECT SPARSE SOLVER RUNNING ON
 	1 HOST x 1 MPI RANK PER HOST x 1 THREAD PER RANK
        NUMBER OF EQUATIONS:  64
        NUMBER OF RHS:        1
        NUMBER OF FLOPS:      4.378e+04
        SOLVER ELAPSED TIME:  0ms

               CONVERGENCE CHECKS FOR EQUILIBRIUM ITERATION     2


 AVERAGE FORCE                      2.064E-04   TIME AVG. FORCE       2.064E-04
 LARGEST SCALED RESIDUAL FORCE     -7.549E-05   AT NODE          2   DOF  1
  CORRESPONDING RESIDUAL FORCE     -7.549E-05
 LARGEST INCREMENT OF DISP.         9.416E-04   AT NODE          2   DOF  1
 LARGEST CORRECTION TO DISP.        2.990E-04   AT NODE          3   DOF  1
          FORCE     EQUILIBRIUM NOT ACHIEVED WITHIN TOLERANCE.

 AVERAGE HEAT FLUX                  6.589E-03   TIME AVG. HEAT FLUX   6.589E-03
 LARGEST RESIDUAL HEAT FLUX         3.541E-06   AT NODE          7   DOF 11
 LARGEST INCREMENT OF TEMP.         -15.2       AT NODE          7   DOF 11
 LARGEST CORRECTION TO TEMP.       -3.823E-02   AT NODE          7   DOF 11
          THE HEAT FLUX EQUILIBRIUM EQUATIONS HAVE CONVERGED
 
	UNSYMMETRIC NEW DIRECT SPARSE SOLVER RUNNING ON
 	1 HOST x 1 MPI RANK PER HOST x 1 THREAD PER RANK
        NUMBER OF EQUATIONS:  64
        NUMBER OF RHS:        1
        NUMBER OF FLOPS:      4.378e+04
        SOLVER ELAPSED TIME:  0ms

               CONVERGENCE CHECKS FOR EQUILIBRIUM ITERATION     3


 AVERAGE FORCE                      1.918E-04   TIME AVG. FORCE       1.918E-04
 LARGEST SCALED RESIDUAL FORCE      7.541E-08   AT NODE          7   DOF  2
  CORRESPONDING RESIDUAL FORCE      7.541E-08
 LARGEST INCREMENT OF DISP.         9.413E-04   AT NODE          2   DOF  1
 LARGEST CORRECTION TO DISP.       -3.092E-07   AT NODE          2   DOF  1
          THE FORCE     EQUILIBRIUM EQUATIONS HAVE CONVERGED

 AVERAGE HEAT FLUX                  6.589E-03   TIME AVG. HEAT FLUX   6.589E-03
 LARGEST RESIDUAL HEAT FLUX         2.688E-09   AT NODE          7   DOF 11
 LARGEST INCREMENT OF TEMP.         -15.2       AT NODE          7   DOF 11
 LARGEST CORRECTION TO TEMP.        1.051E-03   AT NODE          7   DOF 11
          THE HEAT FLUX EQUILIBRIUM EQUATIONS HAVE CONVERGED

 MAXIMUM NON-PRESCRIBED INCREMENT IN TEMPERATURE IS   -15.2    

 ITERATION SUMMARY FOR THE INCREMENT:   3 TOTAL ITERATIONS, OF WHICH
   0 ARE SEVERE DISCONTINUITY ITERATIONS AND  3 ARE EQUILIBRIUM ITERATIONS.

 TIME INCREMENT COMPLETED  0.100    ,  FRACTION OF STEP COMPLETED  1.111E-04
 STEP TIME COMPLETED       0.100    ,  TOTAL TIME COMPLETED        0.100    


  INCREMENT     2 STARTS. ATTEMPT NUMBER  1, TIME INCREMENT  0.100    
 
	UNSYMMETRIC NEW DIRECT SPARSE SOLVER RUNNING ON
 	1 HOST x 1 MPI RANK PER HOST x 1 THREAD PER RANK
        NUMBER OF EQUATIONS:  64
        NUMBER OF RHS:        1
        NUMBER OF FLOPS:      4.378e+04
        SOLVER ELAPSED TIME:  0ms

               CONVERGENCE CHECKS FOR EQUILIBRIUM ITERATION     1


 AVERAGE FORCE                      3.747E-03   TIME AVG. FORCE       1.969E-03
 LARGEST SCALED RESIDUAL FORCE      4.067E-03   AT NODE          7   DOF  2
  CORRESPONDING RESIDUAL FORCE      4.067E-03
 LARGEST INCREMENT OF DISP.        -1.433E-04   AT NODE          3   DOF  1
 LARGEST CORRECTION TO DISP.       -7.992E-04   AT NODE          2   DOF  1
          FORCE     EQUILIBRIUM NOT ACHIEVED WITHIN TOLERANCE.

 AVERAGE HEAT FLUX                  2.909E-04   TIME AVG. HEAT FLUX   3.440E-03
 LARGEST RESIDUAL HEAT FLUX        -2.445E-04   AT NODE          6   DOF 11
 LARGEST INCREMENT OF TEMP.         -2.74       AT NODE          6   DOF 11
 LARGEST CORRECTION TO TEMP.         12.5       AT NODE          5   DOF 11
          HEAT FLUX EQUILIBRIUM NOT ACHIEVED WITHIN TOLERANCE.
 
	UNSYMMETRIC NEW DIRECT SPARSE SOLVER RUNNING ON
 	1 HOST x 1 MPI RANK PER HOST x 1 THREAD PER RANK
        NUMBER OF EQUATIONS:  64
        NUMBER OF RHS:        1
        NUMBER OF FLOPS:      4.378e+04
        SOLVER ELAPSED TIME:  0ms

               CONVERGENCE CHECKS FOR EQUILIBRIUM ITERATION     2


 AVERAGE FORCE                      5.691E-04   TIME AVG. FORCE       3.805E-04
 LARGEST SCALED RESIDUAL FORCE     -2.849E-05   AT NODE          3   DOF  1
  CORRESPONDING RESIDUAL FORCE     -2.849E-05
 LARGEST INCREMENT OF DISP.         2.417E-05   AT NODE          3   DOF  1
 LARGEST CORRECTION TO DISP.        1.675E-04   AT NODE          3   DOF  1
          FORCE     EQUILIBRIUM NOT ACHIEVED WITHIN TOLERANCE.

 AVERAGE HEAT FLUX                  2.604E-04   TIME AVG. HEAT FLUX   3.424E-03
 LARGEST RESIDUAL HEAT FLUX        -9.204E-08   AT NODE          7   DOF 11
 LARGEST INCREMENT OF TEMP.         -2.82       AT NODE          6   DOF 11
 LARGEST CORRECTION TO TEMP.       -7.258E-02   AT NODE          5   DOF 11
 ESTIMATE OF TEMP.    CORRECTION   -2.733E-05
 HEAT FLUX EQUILIB. ACCEPTED BASED ON SMALL RESIDUAL AND ESTIMATED CORRECTION
 
	UNSYMMETRIC NEW DIRECT SPARSE SOLVER RUNNING ON
 	1 HOST x 1 MPI RANK PER HOST x 1 THREAD PER RANK
        NUMBER OF EQUATIONS:  64
        NUMBER OF RHS:        1
        NUMBER OF FLOPS:      4.378e+04
        SOLVER ELAPSED TIME:  0ms

               CONVERGENCE CHECKS FOR EQUILIBRIUM ITERATION     3


 AVERAGE FORCE                      5.528E-04   TIME AVG. FORCE       3.723E-04
 LARGEST SCALED RESIDUAL FORCE      2.820E-08   AT NODE          3   DOF  1
  CORRESPONDING RESIDUAL FORCE      2.820E-08
 LARGEST INCREMENT OF DISP.        -2.405E-05   AT NODE          2   DOF  1
 LARGEST CORRECTION TO DISP.       -1.390E-07   AT NODE          3   DOF  1
          THE FORCE     EQUILIBRIUM EQUATIONS HAVE CONVERGED

 AVERAGE HEAT FLUX                  2.604E-04   TIME AVG. HEAT FLUX   3.424E-03
 LARGEST RESIDUAL HEAT FLUX         7.768E-11   AT NODE          6   DOF 11
 LARGEST INCREMENT OF TEMP.         -2.82       AT NODE          6   DOF 11
 LARGEST CORRECTION TO TEMP.       -2.738E-05   AT NODE          7   DOF 11
          THE HEAT FLUX EQUILIBRIUM EQUATIONS HAVE CONVERGED

 MAXIMUM NON-PRESCRIBED INCREMENT IN TEMPERATURE IS   -2.82    

 ITERATION SUMMARY FOR THE INCREMENT:   3 TOTAL ITERATIONS, OF WHICH
   0 ARE SEVERE DISCONTINUITY ITERATIONS AND  3 ARE EQUILIBRIUM ITERATIONS.

 TIME INCREMENT COMPLETED  0.100    ,  FRACTION OF STEP COMPLETED  2.222E-04
 STEP TIME COMPLETED       0.200    ,  TOTAL TIME COMPLETED        0.200    


  INCREMENT     3 STARTS. ATTEMPT NUMBER  1, TIME INCREMENT  0.100    
 
	UNSYMMETRIC NEW DIRECT SPARSE SOLVER RUNNING ON
 	1 HOST x 1 MPI RANK PER HOST x 1 THREAD PER RANK
        NUMBER OF EQUATIONS:  64
        NUMBER OF RHS:        1
        NUMBER OF FLOPS:      4.378e+04
        SOLVER ELAPSED TIME:  0ms

               CONVERGENCE CHECKS FOR EQUILIBRIUM ITERATION     1


 AVERAGE FORCE                      5.753E-04   TIME AVG. FORCE       4.400E-04
 LARGEST SCALED RESIDUAL FORCE     -1.942E-06   AT NODE          3   DOF  2
  CORRESPONDING RESIDUAL FORCE     -1.942E-06
 LARGEST INCREMENT OF DISP.        -2.341E-05   AT NODE          3   DOF  1
 LARGEST CORRECTION TO DISP.        4.744E-05   AT NODE          2   DOF  1
 ESTIMATE OF DISP.    CORRECTION    1.041E-07
 FORCE     EQUILIB. ACCEPTED BASED ON SMALL RESIDUAL AND ESTIMATED CORRECTION

 AVERAGE HEAT FLUX                  2.638E-04   TIME AVG. HEAT FLUX   2.371E-03
 LARGEST RESIDUAL HEAT FLUX        -2.727E-05   AT NODE          5   DOF 11
 LARGEST INCREMENT OF TEMP.         0.400       AT NODE          1   DOF 11
 LARGEST CORRECTION TO TEMP.         2.62       AT NODE          8   DOF 11
          HEAT FLUX EQUILIBRIUM NOT ACHIEVED WITHIN TOLERANCE.
 
	UNSYMMETRIC NEW DIRECT SPARSE SOLVER RUNNING ON
 	1 HOST x 1 MPI RANK PER HOST x 1 THREAD PER RANK
        NUMBER OF EQUATIONS:  64
        NUMBER OF RHS:        1
        NUMBER OF FLOPS:      4.378e+04
        SOLVER ELAPSED TIME:  0ms

               CONVERGENCE CHECKS FOR EQUILIBRIUM ITERATION     2


 AVERAGE FORCE                      1.380E-03   TIME AVG. FORCE       7.081E-04
 LARGEST SCALED RESIDUAL FORCE     -5.066E-09   AT NODE          8   DOF  3
  CORRESPONDING RESIDUAL FORCE     -5.066E-09
 LARGEST INCREMENT OF DISP.         2.342E-05   AT NODE          2   DOF  1
 LARGEST CORRECTION TO DISP.        2.771E-08   AT NODE          2   DOF  1
          THE FORCE     EQUILIBRIUM EQUATIONS HAVE CONVERGED

 AVERAGE HEAT FLUX                  2.535E-04   TIME AVG. HEAT FLUX   2.367E-03
 LARGEST RESIDUAL HEAT FLUX        -3.451E-11   AT NODE          5   DOF 11
 LARGEST INCREMENT OF TEMP.         0.400       AT NODE          1   DOF 11
 LARGEST CORRECTION TO TEMP.       -8.100E-03   AT NODE          8   DOF 11
 ESTIMATE OF TEMP.    CORRECTION   -1.025E-08
 HEAT FLUX EQUILIB. ACCEPTED BASED ON SMALL RESIDUAL AND ESTIMATED CORRECTION

 MAXIMUM NON-PRESCRIBED INCREMENT IN TEMPERATURE IS  -0.200    
          TIME INCREMENT MAY NOW INCREASE TO    0.150    

 ITERATION SUMMARY FOR THE INCREMENT:   2 TOTAL ITERATIONS, OF WHICH
   0 ARE SEVERE DISCONTINUITY ITERATIONS AND  2 ARE EQUILIBRIUM ITERATIONS.

 TIME INCREMENT COMPLETED  0.100    ,  FRACTION OF STEP COMPLETED  3.333E-04
 STEP TIME COMPLETED       0.300    ,  TOTAL TIME COMPLETED        0.300    


  INCREMENT     4 STARTS. ATTEMPT NUMBER  1, TIME INCREMENT  0.150    
 
	UNSYMMETRIC NEW DIRECT SPARSE SOLVER RUNNING ON
 	1 HOST x 1 MPI RANK PER HOST x 1 THREAD PER RANK
        NUMBER OF EQUATIONS:  64
        NUMBER OF RHS:        1
        NUMBER OF FLOPS:      4.378e+04
        SOLVER ELAPSED TIME:  0ms

               CONVERGENCE CHECKS FOR EQUILIBRIUM ITERATION     1


 AVERAGE FORCE                      1.459E-03   TIME AVG. FORCE       8.959E-04
 LARGEST SCALED RESIDUAL FORCE      2.306E-09   AT NODE          2   DOF  1
  CORRESPONDING RESIDUAL FORCE      2.306E-09
 LARGEST INCREMENT OF DISP.         3.513E-05   AT NODE          2   DOF  1
 LARGEST CORRECTION TO DISP.       -7.479E-09   AT NODE          3   DOF  1
          THE FORCE     EQUILIBRIUM EQUATIONS HAVE CONVERGED

 AVERAGE HEAT FLUX                  1.014E-03   TIME AVG. HEAT FLUX   2.029E-03
 LARGEST RESIDUAL HEAT FLUX         2.577E-13   AT NODE          8   DOF 11
 LARGEST INCREMENT OF TEMP.         0.599       AT NODE          1   DOF 11
 LARGEST CORRECTION TO TEMP.       -2.581E-05   AT NODE          5   DOF 11
          THE HEAT FLUX EQUILIBRIUM RESPONSE WAS LINEAR IN THIS INCREMENT

 MAXIMUM NON-PRESCRIBED INCREMENT IN TEMPERATURE IS  -0.300    
          TIME INCREMENT MAY NOW INCREASE TO    0.225    

 ITERATION SUMMARY FOR THE INCREMENT:   1 TOTAL ITERATIONS, OF WHICH
   0 ARE SEVERE DISCONTINUITY ITERATIONS AND  1 ARE EQUILIBRIUM ITERATIONS.

 TIME INCREMENT COMPLETED  0.150    ,  FRACTION OF STEP COMPLETED  5.000E-04
 STEP TIME COMPLETED       0.450    ,  TOTAL TIME COMPLETED        0.450    


  INCREMENT     5 STARTS. ATTEMPT NUMBER  1, TIME INCREMENT  0.225    
 
	UNSYMMETRIC NEW DIRECT SPARSE SOLVER RUNNING ON
 	1 HOST x 1 MPI RANK PER HOST x 1 THREAD PER RANK
        NUMBER OF EQUATIONS:  64
        NUMBER OF RHS:        1
        NUMBER OF FLOPS:      4.378e+04
        SOLVER ELAPSED TIME:  0ms

               CONVERGENCE CHECKS FOR EQUILIBRIUM ITERATION     1


 AVERAGE FORCE                      1.579E-03   TIME AVG. FORCE       1.033E-03
 LARGEST SCALED RESIDUAL FORCE      5.144E-09   AT NODE          2   DOF  1
  CORRESPONDING RESIDUAL FORCE      5.144E-09
 LARGEST INCREMENT OF DISP.         5.272E-05   AT NODE          2   DOF  1
 LARGEST CORRECTION TO DISP.       -2.104E-08   AT NODE          3   DOF  1
          THE FORCE     EQUILIBRIUM EQUATIONS HAVE CONVERGED

 AVERAGE HEAT FLUX                  1.014E-03   TIME AVG. HEAT FLUX   1.826E-03
 LARGEST RESIDUAL HEAT FLUX        -5.108E-12   AT NODE          8   DOF 11
 LARGEST INCREMENT OF TEMP.         0.899       AT NODE          1   DOF 11
 LARGEST CORRECTION TO TEMP.       -6.792E-05   AT NODE          7   DOF 11
          THE HEAT FLUX EQUILIBRIUM RESPONSE WAS LINEAR IN THIS INCREMENT

 MAXIMUM NON-PRESCRIBED INCREMENT IN TEMPERATURE IS  -0.451    
          TIME INCREMENT MAY NOW INCREASE TO    0.338    

 ITERATION SUMMARY FOR THE INCREMENT:   1 TOTAL ITERATIONS, OF WHICH
   0 ARE SEVERE DISCONTINUITY ITERATIONS AND  1 ARE EQUILIBRIUM ITERATIONS.

 TIME INCREMENT COMPLETED  0.225    ,  FRACTION OF STEP COMPLETED  7.500E-04
 STEP TIME COMPLETED       0.675    ,  TOTAL TIME COMPLETED        0.675    


  INCREMENT     6 STARTS. ATTEMPT NUMBER  1, TIME INCREMENT  0.338    
 
	UNSYMMETRIC NEW DIRECT SPARSE SOLVER RUNNING ON
 	1 HOST x 1 MPI RANK PER HOST x 1 THREAD PER RANK
        NUMBER OF EQUATIONS:  64
        NUMBER OF RHS:        1
        NUMBER OF FLOPS:      4.378e+04
        SOLVER ELAPSED TIME:  0ms

               CONVERGENCE CHECKS FOR EQUILIBRIUM ITERATION     1


 AVERAGE FORCE                      1.758E-03   TIME AVG. FORCE       1.154E-03
 LARGEST SCALED RESIDUAL FORCE      1.079E-08   AT NODE          2   DOF  1
  CORRESPONDING RESIDUAL FORCE      1.079E-08
 LARGEST INCREMENT OF DISP.         7.925E-05   AT NODE          2   DOF  1
 LARGEST CORRECTION TO DISP.       -1.743E-07   AT NODE          3   DOF  1
          THE FORCE     EQUILIBRIUM EQUATIONS HAVE CONVERGED

 AVERAGE HEAT FLUX                  1.016E-03   TIME AVG. HEAT FLUX   1.691E-03
 LARGEST RESIDUAL HEAT FLUX        -9.927E-11   AT NODE          5   DOF 11
 LARGEST INCREMENT OF TEMP.          1.35       AT NODE          1   DOF 11
 LARGEST CORRECTION TO TEMP.        6.911E-03   AT NODE          6   DOF 11
          THE HEAT FLUX EQUILIBRIUM EQUATIONS HAVE CONVERGED

 MAXIMUM NON-PRESCRIBED INCREMENT IN TEMPERATURE IS  -0.669    
          TIME INCREMENT MAY NOW INCREASE TO    0.506    

 ITERATION SUMMARY FOR THE INCREMENT:   1 TOTAL ITERATIONS, OF WHICH
   0 ARE SEVERE DISCONTINUITY ITERATIONS AND  1 ARE EQUILIBRIUM ITERATIONS.

 TIME INCREMENT COMPLETED  0.338    ,  FRACTION OF STEP COMPLETED  1.125E-03
 STEP TIME COMPLETED        1.01    ,  TOTAL TIME COMPLETED         1.01    


  INCREMENT     7 STARTS. ATTEMPT NUMBER  1, TIME INCREMENT  0.506    
 
	UNSYMMETRIC NEW DIRECT SPARSE SOLVER RUNNING ON
 	1 HOST x 1 MPI RANK PER HOST x 1 THREAD PER RANK
        NUMBER OF EQUATIONS:  64
        NUMBER OF RHS:        1
        NUMBER OF FLOPS:      4.378e+04
        SOLVER ELAPSED TIME:  0ms

               CONVERGENCE CHECKS FOR EQUILIBRIUM ITERATION     1


 AVERAGE FORCE                      8.448E-04   TIME AVG. FORCE       1.109E-03
 LARGEST SCALED RESIDUAL FORCE      2.900E-08   AT NODE          7   DOF  2
  CORRESPONDING RESIDUAL FORCE      2.900E-08
 LARGEST INCREMENT OF DISP.         1.188E-04   AT NODE          2   DOF  1
 LARGEST CORRECTION TO DISP.       -1.084E-07   AT NODE          3   DOF  2
          THE FORCE     EQUILIBRIUM EQUATIONS HAVE CONVERGED

 AVERAGE HEAT FLUX                  1.015E-03   TIME AVG. HEAT FLUX   1.595E-03
 LARGEST RESIDUAL HEAT FLUX         6.893E-11   AT NODE          6   DOF 11
 LARGEST INCREMENT OF TEMP.          2.02       AT NODE          1   DOF 11
 LARGEST CORRECTION TO TEMP.       -1.094E-02   AT NODE          7   DOF 11
          THE HEAT FLUX EQUILIBRIUM EQUATIONS HAVE CONVERGED

 MAXIMUM NON-PRESCRIBED INCREMENT IN TEMPERATURE IS   -1.01    
          TIME INCREMENT MAY NOW INCREASE TO    0.759    

 ITERATION SUMMARY FOR THE INCREMENT:   1 TOTAL ITERATIONS, OF WHICH
   0 ARE SEVERE DISCONTINUITY ITERATIONS AND  1 ARE EQUILIBRIUM ITERATIONS.

 TIME INCREMENT COMPLETED  0.506    ,  FRACTION OF STEP COMPLETED  1.688E-03
 STEP TIME COMPLETED        1.52    ,  TOTAL TIME COMPLETED         1.52    


  INCREMENT     8 STARTS. ATTEMPT NUMBER  1, TIME INCREMENT  0.759    
 
	UNSYMMETRIC NEW DIRECT SPARSE SOLVER RUNNING ON
 	1 HOST x 1 MPI RANK PER HOST x 1 THREAD PER RANK
        NUMBER OF EQUATIONS:  64
        NUMBER OF RHS:        1
        NUMBER OF FLOPS:      4.378e+04
        SOLVER ELAPSED TIME:  0ms

               CONVERGENCE CHECKS FOR EQUILIBRIUM ITERATION     1


 AVERAGE FORCE                      1.013E-03   TIME AVG. FORCE       1.097E-03
 LARGEST SCALED RESIDUAL FORCE      5.919E-08   AT NODE          2   DOF  1
  CORRESPONDING RESIDUAL FORCE      5.919E-08
 LARGEST INCREMENT OF DISP.         1.784E-04   AT NODE          2   DOF  1
 LARGEST CORRECTION TO DISP.       -2.339E-07   AT NODE          3   DOF  1
          THE FORCE     EQUILIBRIUM EQUATIONS HAVE CONVERGED

 AVERAGE HEAT FLUX                  1.016E-03   TIME AVG. HEAT FLUX   1.522E-03
 LARGEST RESIDUAL HEAT FLUX        -9.195E-11   AT NODE          6   DOF 11
 LARGEST INCREMENT OF TEMP.          3.03       AT NODE          1   DOF 11
 LARGEST CORRECTION TO TEMP.       -7.753E-04   AT NODE          7   DOF 11
          THE HEAT FLUX EQUILIBRIUM EQUATIONS HAVE CONVERGED

 MAXIMUM NON-PRESCRIBED INCREMENT IN TEMPERATURE IS   -1.52    
          TIME INCREMENT MAY NOW INCREASE TO     1.14    

 ITERATION SUMMARY FOR THE INCREMENT:   1 TOTAL ITERATIONS, OF WHICH
   0 ARE SEVERE DISCONTINUITY ITERATIONS AND  1 ARE EQUILIBRIUM ITERATIONS.

 TIME INCREMENT COMPLETED  0.759    ,  FRACTION OF STEP COMPLETED  2.531E-03
 STEP TIME COMPLETED        2.28    ,  TOTAL TIME COMPLETED         2.28    


  INCREMENT     9 STARTS. ATTEMPT NUMBER  1, TIME INCREMENT   1.14    
 
	UNSYMMETRIC NEW DIRECT SPARSE SOLVER RUNNING ON
 	1 HOST x 1 MPI RANK PER HOST x 1 THREAD PER RANK
        NUMBER OF EQUATIONS:  64
        NUMBER OF RHS:        1
        NUMBER OF FLOPS:      4.378e+04
        SOLVER ELAPSED TIME:  0ms

               CONVERGENCE CHECKS FOR EQUILIBRIUM ITERATION     1


 AVERAGE FORCE                      1.266E-03   TIME AVG. FORCE       1.116E-03
 LARGEST SCALED RESIDUAL FORCE      1.352E-07   AT NODE          2   DOF  1
  CORRESPONDING RESIDUAL FORCE      1.352E-07
 LARGEST INCREMENT OF DISP.         2.683E-04   AT NODE          2   DOF  1
 LARGEST CORRECTION TO DISP.       -6.886E-07   AT NODE          3   DOF  1
          THE FORCE     EQUILIBRIUM EQUATIONS HAVE CONVERGED

 AVERAGE HEAT FLUX                  1.018E-03   TIME AVG. HEAT FLUX   1.466E-03
 LARGEST RESIDUAL HEAT FLUX        -3.159E-10   AT NODE          6   DOF 11
 LARGEST INCREMENT OF TEMP.          4.55       AT NODE          1   DOF 11
 LARGEST CORRECTION TO TEMP.       -2.374E-03   AT NODE          7   DOF 11
          THE HEAT FLUX EQUILIBRIUM EQUATIONS HAVE CONVERGED

 MAXIMUM NON-PRESCRIBED INCREMENT IN TEMPERATURE IS   -2.29    
          TIME INCREMENT MAY NOW INCREASE TO     1.71    

 ITERATION SUMMARY FOR THE INCREMENT:   1 TOTAL ITERATIONS, OF WHICH
   0 ARE SEVERE DISCONTINUITY ITERATIONS AND  1 ARE EQUILIBRIUM ITERATIONS.

 TIME INCREMENT COMPLETED   1.14    ,  FRACTION OF STEP COMPLETED  3.797E-03
 STEP TIME COMPLETED        3.42    ,  TOTAL TIME COMPLETED         3.42    


  INCREMENT    10 STARTS. ATTEMPT NUMBER  1, TIME INCREMENT   1.71    
 
	UNSYMMETRIC NEW DIRECT SPARSE SOLVER RUNNING ON
 	1 HOST x 1 MPI RANK PER HOST x 1 THREAD PER RANK
        NUMBER OF EQUATIONS:  64
        NUMBER OF RHS:        1
        NUMBER OF FLOPS:      4.378e+04
        SOLVER ELAPSED TIME:  0ms

               CONVERGENCE CHECKS FOR EQUILIBRIUM ITERATION     1


 AVERAGE FORCE                      1.645E-03   TIME AVG. FORCE       1.169E-03
 LARGEST SCALED RESIDUAL FORCE      3.054E-07   AT NODE          2   DOF  1
  CORRESPONDING RESIDUAL FORCE      3.054E-07
 LARGEST INCREMENT OF DISP.         4.035E-04   AT NODE          2   DOF  1
 LARGEST CORRECTION TO DISP.       -1.160E-06   AT NODE          3   DOF  1
          THE FORCE     EQUILIBRIUM EQUATIONS HAVE CONVERGED

 AVERAGE HEAT FLUX                  1.019E-03   TIME AVG. HEAT FLUX   1.422E-03
 LARGEST RESIDUAL HEAT FLUX        -4.962E-10   AT NODE          6   DOF 11
 LARGEST INCREMENT OF TEMP.          6.83       AT NODE          1   DOF 11
 LARGEST CORRECTION TO TEMP.       -3.794E-03   AT NODE          7   DOF 11
          THE HEAT FLUX EQUILIBRIUM EQUATIONS HAVE CONVERGED

 MAXIMUM NON-PRESCRIBED INCREMENT IN TEMPERATURE IS   -3.43    
          TIME INCREMENT MAY NOW INCREASE TO     2.56    

 ITERATION SUMMARY FOR THE INCREMENT:   1 TOTAL ITERATIONS, OF WHICH
   0 ARE SEVERE DISCONTINUITY ITERATIONS AND  1 ARE EQUILIBRIUM ITERATIONS.

 TIME INCREMENT COMPLETED   1.71    ,  FRACTION OF STEP COMPLETED  5.695E-03
 STEP TIME COMPLETED        5.13    ,  TOTAL TIME COMPLETED         5.13    


  INCREMENT    11 STARTS. ATTEMPT NUMBER  1, TIME INCREMENT   2.56    
 
	UNSYMMETRIC NEW DIRECT SPARSE SOLVER RUNNING ON
 	1 HOST x 1 MPI RANK PER HOST x 1 THREAD PER RANK
        NUMBER OF EQUATIONS:  64
        NUMBER OF RHS:        1
        NUMBER OF FLOPS:      4.378e+04
        SOLVER ELAPSED TIME:  0ms

               CONVERGENCE CHECKS FOR EQUILIBRIUM ITERATION     1


 AVERAGE FORCE                      2.215E-03   TIME AVG. FORCE       1.264E-03
 LARGEST SCALED RESIDUAL FORCE      6.994E-07   AT NODE          2   DOF  1
  CORRESPONDING RESIDUAL FORCE      6.994E-07
 LARGEST INCREMENT OF DISP.         6.088E-04   AT NODE          2   DOF  1
 LARGEST CORRECTION TO DISP.       -3.645E-06   AT NODE          3   DOF  1
          THE FORCE     EQUILIBRIUM EQUATIONS HAVE CONVERGED

 AVERAGE HEAT FLUX                  1.023E-03   TIME AVG. HEAT FLUX   1.385E-03
 LARGEST RESIDUAL HEAT FLUX        -1.784E-09   AT NODE          6   DOF 11
 LARGEST INCREMENT OF TEMP.          10.2       AT NODE          1   DOF 11
 LARGEST CORRECTION TO TEMP.        3.328E-02   AT NODE          6   DOF 11
          THE HEAT FLUX EQUILIBRIUM EQUATIONS HAVE CONVERGED

 MAXIMUM NON-PRESCRIBED INCREMENT IN TEMPERATURE IS   -5.12    
          TIME INCREMENT MAY NOW INCREASE TO     3.84    

 ITERATION SUMMARY FOR THE INCREMENT:   1 TOTAL ITERATIONS, OF WHICH
   0 ARE SEVERE DISCONTINUITY ITERATIONS AND  1 ARE EQUILIBRIUM ITERATIONS.

 TIME INCREMENT COMPLETED   2.56    ,  FRACTION OF STEP COMPLETED  8.543E-03
 STEP TIME COMPLETED        7.69    ,  TOTAL TIME COMPLETED         7.69    


  INCREMENT    12 STARTS. ATTEMPT NUMBER  1, TIME INCREMENT   3.84    
 
	UNSYMMETRIC NEW DIRECT SPARSE SOLVER RUNNING ON
 	1 HOST x 1 MPI RANK PER HOST x 1 THREAD PER RANK
        NUMBER OF EQUATIONS:  64
        NUMBER OF RHS:        1
        NUMBER OF FLOPS:      4.378e+04
        SOLVER ELAPSED TIME:  0ms

               CONVERGENCE CHECKS FOR EQUILIBRIUM ITERATION     1


 AVERAGE FORCE                      3.070E-03   TIME AVG. FORCE       1.414E-03
 LARGEST SCALED RESIDUAL FORCE      1.609E-06   AT NODE          2   DOF  1
  CORRESPONDING RESIDUAL FORCE      1.609E-06
 LARGEST INCREMENT OF DISP.         9.182E-04   AT NODE          2   DOF  1
 LARGEST CORRECTION TO DISP.       -5.316E-06   AT NODE          3   DOF  1
          THE FORCE     EQUILIBRIUM EQUATIONS HAVE CONVERGED

 AVERAGE HEAT FLUX                  1.026E-03   TIME AVG. HEAT FLUX   1.355E-03
 LARGEST RESIDUAL HEAT FLUX        -2.374E-09   AT NODE          6   DOF 11
 LARGEST INCREMENT OF TEMP.          15.4       AT NODE          1   DOF 11
 LARGEST CORRECTION TO TEMP.       -8.568E-02   AT NODE          7   DOF 11
          THE HEAT FLUX EQUILIBRIUM EQUATIONS HAVE CONVERGED

 MAXIMUM NON-PRESCRIBED INCREMENT IN TEMPERATURE IS   -7.76    
          TIME INCREMENT MAY NOW INCREASE TO     5.77    

 ITERATION SUMMARY FOR THE INCREMENT:   1 TOTAL ITERATIONS, OF WHICH
   0 ARE SEVERE DISCONTINUITY ITERATIONS AND  1 ARE EQUILIBRIUM ITERATIONS.

 TIME INCREMENT COMPLETED   3.84    ,  FRACTION OF STEP COMPLETED  1.281E-02
 STEP TIME COMPLETED        11.5    ,  TOTAL TIME COMPLETED         11.5    


  INCREMENT    13 STARTS. ATTEMPT NUMBER  1, TIME INCREMENT   5.77    
 
	UNSYMMETRIC NEW DIRECT SPARSE SOLVER RUNNING ON
 	1 HOST x 1 MPI RANK PER HOST x 1 THREAD PER RANK
        NUMBER OF EQUATIONS:  64
        NUMBER OF RHS:        1
        NUMBER OF FLOPS:      4.378e+04
        SOLVER ELAPSED TIME:  0ms

               CONVERGENCE CHECKS FOR EQUILIBRIUM ITERATION     1


 AVERAGE FORCE                      4.357E-03   TIME AVG. FORCE       1.641E-03
 LARGEST SCALED RESIDUAL FORCE      3.697E-06   AT NODE          2   DOF  1
  CORRESPONDING RESIDUAL FORCE      3.697E-06
 LARGEST INCREMENT OF DISP.        -1.392E-03   AT NODE          3   DOF  1
 LARGEST CORRECTION TO DISP.       -1.472E-05   AT NODE          3   DOF  1
 ESTIMATE OF DISP.    CORRECTION    1.587E-08
 FORCE     EQUILIB. ACCEPTED BASED ON SMALL RESIDUAL AND ESTIMATED CORRECTION

 AVERAGE HEAT FLUX                  1.032E-03   TIME AVG. HEAT FLUX   1.331E-03
 LARGEST RESIDUAL HEAT FLUX        -6.864E-09   AT NODE          6   DOF 11
 LARGEST INCREMENT OF TEMP.          23.0       AT NODE          1   DOF 11
 LARGEST CORRECTION TO TEMP.       -4.900E-02   AT NODE          7   DOF 11
          THE HEAT FLUX EQUILIBRIUM EQUATIONS HAVE CONVERGED

 MAXIMUM NON-PRESCRIBED INCREMENT IN TEMPERATURE IS   -11.7    
          TIME INCREMENT MAY NOW INCREASE TO     8.65    

 ITERATION SUMMARY FOR THE INCREMENT:   1 TOTAL ITERATIONS, OF WHICH
   0 ARE SEVERE DISCONTINUITY ITERATIONS AND  1 ARE EQUILIBRIUM ITERATIONS.

 TIME INCREMENT COMPLETED   5.77    ,  FRACTION OF STEP COMPLETED  1.922E-02
 STEP TIME COMPLETED        17.3    ,  TOTAL TIME COMPLETED         17.3    


  INCREMENT    14 STARTS. ATTEMPT NUMBER  1, TIME INCREMENT   8.65    
 
	UNSYMMETRIC NEW DIRECT SPARSE SOLVER RUNNING ON
 	1 HOST x 1 MPI RANK PER HOST x 1 THREAD PER RANK
        NUMBER OF EQUATIONS:  64
        NUMBER OF RHS:        1
        NUMBER OF FLOPS:      4.378e+04
        SOLVER ELAPSED TIME:  0ms

               CONVERGENCE CHECKS FOR EQUILIBRIUM ITERATION     1


 AVERAGE FORCE                      6.299E-03   TIME AVG. FORCE       1.974E-03
 LARGEST SCALED RESIDUAL FORCE      8.337E-06   AT NODE          2   DOF  1
  CORRESPONDING RESIDUAL FORCE      8.337E-06
 LARGEST INCREMENT OF DISP.        -2.126E-03   AT NODE          3   DOF  1
 LARGEST CORRECTION TO DISP.       -3.758E-05   AT NODE          3   DOF  1
 ESTIMATE OF DISP.    CORRECTION    3.948E-08
 FORCE     EQUILIB. ACCEPTED BASED ON SMALL RESIDUAL AND ESTIMATED CORRECTION

 AVERAGE HEAT FLUX                  1.044E-03   TIME AVG. HEAT FLUX   1.310E-03
 LARGEST RESIDUAL HEAT FLUX        -1.833E-08   AT NODE          6   DOF 11
 LARGEST INCREMENT OF TEMP.          34.6       AT NODE          1   DOF 11
 LARGEST CORRECTION TO TEMP.        9.213E-02   AT NODE          6   DOF 11
          THE HEAT FLUX EQUILIBRIUM EQUATIONS HAVE CONVERGED

 MAXIMUM NON-PRESCRIBED INCREMENT IN TEMPERATURE IS   -17.4    
          TIME INCREMENT MAY NOW INCREASE TO     13.0    

 ITERATION SUMMARY FOR THE INCREMENT:   1 TOTAL ITERATIONS, OF WHICH
   0 ARE SEVERE DISCONTINUITY ITERATIONS AND  1 ARE EQUILIBRIUM ITERATIONS.

 TIME INCREMENT COMPLETED   8.65    ,  FRACTION OF STEP COMPLETED  2.883E-02
 STEP TIME COMPLETED        25.9    ,  TOTAL TIME COMPLETED         25.9    


  INCREMENT    15 STARTS. ATTEMPT NUMBER  1, TIME INCREMENT   13.0    
 
	UNSYMMETRIC NEW DIRECT SPARSE SOLVER RUNNING ON
 	1 HOST x 1 MPI RANK PER HOST x 1 THREAD PER RANK
        NUMBER OF EQUATIONS:  64
        NUMBER OF RHS:        1
        NUMBER OF FLOPS:      4.378e+04
        SOLVER ELAPSED TIME:  0ms

               CONVERGENCE CHECKS FOR EQUILIBRIUM ITERATION     1


 AVERAGE FORCE                      9.223E-03   TIME AVG. FORCE       2.457E-03
 LARGEST SCALED RESIDUAL FORCE      1.927E-05   AT NODE          2   DOF  1
  CORRESPONDING RESIDUAL FORCE      1.927E-05
 LARGEST INCREMENT OF DISP.        -3.260E-03   AT NODE          3   DOF  1
 LARGEST CORRECTION TO DISP.       -7.196E-05   AT NODE          3   DOF  1
          FORCE     EQUILIBRIUM NOT ACHIEVED WITHIN TOLERANCE.

 AVERAGE HEAT FLUX                  5.281E-04   TIME AVG. HEAT FLUX   1.258E-03
 LARGEST RESIDUAL HEAT FLUX        -3.492E-08   AT NODE          6   DOF 11
 LARGEST INCREMENT OF TEMP.          51.8       AT NODE          1   DOF 11
 LARGEST CORRECTION TO TEMP.       -0.563       AT NODE          7   DOF 11
 ESTIMATE OF TEMP.    CORRECTION   -1.364E-03
 HEAT FLUX EQUILIB. ACCEPTED BASED ON SMALL RESIDUAL AND ESTIMATED CORRECTION
 
	UNSYMMETRIC NEW DIRECT SPARSE SOLVER RUNNING ON
 	1 HOST x 1 MPI RANK PER HOST x 1 THREAD PER RANK
        NUMBER OF EQUATIONS:  64
        NUMBER OF RHS:        1
        NUMBER OF FLOPS:      4.378e+04
        SOLVER ELAPSED TIME:  0ms

               CONVERGENCE CHECKS FOR EQUILIBRIUM ITERATION     2


 AVERAGE FORCE                      1.843E-02   TIME AVG. FORCE       3.070E-03
 LARGEST SCALED RESIDUAL FORCE     -5.670E-08   AT NODE          7   DOF  2
  CORRESPONDING RESIDUAL FORCE     -5.670E-08
 LARGEST INCREMENT OF DISP.        -3.261E-03   AT NODE          3   DOF  1
 LARGEST CORRECTION TO DISP.        1.433E-06   AT NODE          2   DOF  1
          THE FORCE     EQUILIBRIUM EQUATIONS HAVE CONVERGED

 AVERAGE HEAT FLUX                  1.056E-03   TIME AVG. HEAT FLUX   1.293E-03
 LARGEST RESIDUAL HEAT FLUX        -4.919E-10   AT NODE          7   DOF 11
 LARGEST INCREMENT OF TEMP.          51.8       AT NODE          1   DOF 11
 LARGEST CORRECTION TO TEMP.       -1.385E-03   AT NODE          6   DOF 11
          THE HEAT FLUX EQUILIBRIUM EQUATIONS HAVE CONVERGED

 MAXIMUM NON-PRESCRIBED INCREMENT IN TEMPERATURE IS   -26.7    
          TIME INCREMENT MAY NOW INCREASE TO     19.5    

 ITERATION SUMMARY FOR THE INCREMENT:   2 TOTAL ITERATIONS, OF WHICH
   0 ARE SEVERE DISCONTINUITY ITERATIONS AND  2 ARE EQUILIBRIUM ITERATIONS.

 TIME INCREMENT COMPLETED   13.0    ,  FRACTION OF STEP COMPLETED  4.325E-02
 STEP TIME COMPLETED        38.9    ,  TOTAL TIME COMPLETED         38.9    


  INCREMENT    16 STARTS. ATTEMPT NUMBER  1, TIME INCREMENT   19.5    
 
	UNSYMMETRIC NEW DIRECT SPARSE SOLVER RUNNING ON
 	1 HOST x 1 MPI RANK PER HOST x 1 THREAD PER RANK
        NUMBER OF EQUATIONS:  64
        NUMBER OF RHS:        1
        NUMBER OF FLOPS:      4.378e+04
        SOLVER ELAPSED TIME:  0ms

               CONVERGENCE CHECKS FOR EQUILIBRIUM ITERATION     1


 AVERAGE FORCE                      1.365E-02   TIME AVG. FORCE       3.732E-03
 LARGEST SCALED RESIDUAL FORCE      3.272E-05   AT NODE          2   DOF  1
  CORRESPONDING RESIDUAL FORCE      3.272E-05
 LARGEST INCREMENT OF DISP.        -5.089E-03   AT NODE          3   DOF  1
 LARGEST CORRECTION TO DISP.       -1.975E-04   AT NODE          3   DOF  1
          FORCE     EQUILIBRIUM NOT ACHIEVED WITHIN TOLERANCE.

 AVERAGE HEAT FLUX                  5.411E-04   TIME AVG. HEAT FLUX   1.246E-03
 LARGEST RESIDUAL HEAT FLUX        -9.881E-08   AT NODE          6   DOF 11
 LARGEST INCREMENT OF TEMP.          77.8       AT NODE          1   DOF 11
 LARGEST CORRECTION TO TEMP.        0.314       AT NODE          6   DOF 11
          THE HEAT FLUX EQUILIBRIUM EQUATIONS HAVE CONVERGED
 
	UNSYMMETRIC NEW DIRECT SPARSE SOLVER RUNNING ON
 	1 HOST x 1 MPI RANK PER HOST x 1 THREAD PER RANK
        NUMBER OF EQUATIONS:  64
        NUMBER OF RHS:        1
        NUMBER OF FLOPS:      4.378e+04
        SOLVER ELAPSED TIME:  0ms

               CONVERGENCE CHECKS FOR EQUILIBRIUM ITERATION     2


 AVERAGE FORCE                      1.488E-02   TIME AVG. FORCE       3.809E-03
 LARGEST SCALED RESIDUAL FORCE      3.656E-07   AT NODE          2   DOF  1
  CORRESPONDING RESIDUAL FORCE      3.656E-07
 LARGEST INCREMENT OF DISP.        -5.092E-03   AT NODE          3   DOF  1
 LARGEST CORRECTION TO DISP.        6.814E-06   AT NODE          2   DOF  1
          THE FORCE     EQUILIBRIUM EQUATIONS HAVE CONVERGED

 AVERAGE HEAT FLUX                  1.082E-03   TIME AVG. HEAT FLUX   1.280E-03
 LARGEST RESIDUAL HEAT FLUX        -2.559E-09   AT NODE          7   DOF 11
 LARGEST INCREMENT OF TEMP.          77.8       AT NODE          1   DOF 11
 LARGEST CORRECTION TO TEMP.       -5.878E-03   AT NODE          6   DOF 11
          THE HEAT FLUX EQUILIBRIUM EQUATIONS HAVE CONVERGED

 MAXIMUM NON-PRESCRIBED INCREMENT IN TEMPERATURE IS   -39.8    
          TIME INCREMENT MAY NOW INCREASE TO     29.2    

 ITERATION SUMMARY FOR THE INCREMENT:   2 TOTAL ITERATIONS, OF WHICH
   0 ARE SEVERE DISCONTINUITY ITERATIONS AND  2 ARE EQUILIBRIUM ITERATIONS.

 TIME INCREMENT COMPLETED   19.5    ,  FRACTION OF STEP COMPLETED  6.487E-02
 STEP TIME COMPLETED        58.4    ,  TOTAL TIME COMPLETED         58.4    


  INCREMENT    17 STARTS. ATTEMPT NUMBER  1, TIME INCREMENT   29.2    
 
	UNSYMMETRIC NEW DIRECT SPARSE SOLVER RUNNING ON
 	1 HOST x 1 MPI RANK PER HOST x 1 THREAD PER RANK
        NUMBER OF EQUATIONS:  64
        NUMBER OF RHS:        1
        NUMBER OF FLOPS:      4.378e+04
        SOLVER ELAPSED TIME:  0ms

               CONVERGENCE CHECKS FOR EQUILIBRIUM ITERATION     1


 AVERAGE FORCE                      2.034E-02   TIME AVG. FORCE       4.781E-03
 LARGEST SCALED RESIDUAL FORCE      6.189E-05   AT NODE          2   DOF  1
  CORRESPONDING RESIDUAL FORCE      6.189E-05
 LARGEST INCREMENT OF DISP.        -8.032E-03   AT NODE          3   DOF  1
 LARGEST CORRECTION TO DISP.       -3.941E-04   AT NODE          3   DOF  1
          FORCE     EQUILIBRIUM NOT ACHIEVED WITHIN TOLERANCE.

 AVERAGE HEAT FLUX                  5.561E-04   TIME AVG. HEAT FLUX   1.237E-03
 LARGEST RESIDUAL HEAT FLUX        -2.049E-07   AT NODE          6   DOF 11
 LARGEST INCREMENT OF TEMP.          117.       AT NODE          1   DOF 11
 LARGEST CORRECTION TO TEMP.        -2.78       AT NODE          7   DOF 11
 ESTIMATE OF TEMP.    CORRECTION   -1.835E-02
 HEAT FLUX EQUILIB. ACCEPTED BASED ON SMALL RESIDUAL AND ESTIMATED CORRECTION
 
	UNSYMMETRIC NEW DIRECT SPARSE SOLVER RUNNING ON
 	1 HOST x 1 MPI RANK PER HOST x 1 THREAD PER RANK
        NUMBER OF EQUATIONS:  64
        NUMBER OF RHS:        1
        NUMBER OF FLOPS:      4.378e+04
        SOLVER ELAPSED TIME:  0ms

               CONVERGENCE CHECKS FOR EQUILIBRIUM ITERATION     2


 AVERAGE FORCE                      2.033E-02   TIME AVG. FORCE       4.780E-03
 LARGEST SCALED RESIDUAL FORCE      1.791E-06   AT NODE          2   DOF  1
  CORRESPONDING RESIDUAL FORCE      1.791E-06
 LARGEST INCREMENT OF DISP.        -8.044E-03   AT NODE          3   DOF  1
 LARGEST CORRECTION TO DISP.        2.248E-05   AT NODE          2   DOF  1
          THE FORCE     EQUILIBRIUM EQUATIONS HAVE CONVERGED

 AVERAGE HEAT FLUX                  1.112E-03   TIME AVG. HEAT FLUX   1.270E-03
 LARGEST RESIDUAL HEAT FLUX        -9.136E-09   AT NODE          7   DOF 11
 LARGEST INCREMENT OF TEMP.          117.       AT NODE          1   DOF 11
 LARGEST CORRECTION TO TEMP.       -1.846E-02   AT NODE          6   DOF 11
          THE HEAT FLUX EQUILIBRIUM EQUATIONS HAVE CONVERGED

 MAXIMUM NON-PRESCRIBED INCREMENT IN TEMPERATURE IS   -62.5    
          TIME INCREMENT MAY NOW INCREASE TO     37.4    

 ITERATION SUMMARY FOR THE INCREMENT:   2 TOTAL ITERATIONS, OF WHICH
   0 ARE SEVERE DISCONTINUITY ITERATIONS AND  2 ARE EQUILIBRIUM ITERATIONS.

 TIME INCREMENT COMPLETED   29.2    ,  FRACTION OF STEP COMPLETED  9.731E-02
 STEP TIME COMPLETED        87.6    ,  TOTAL TIME COMPLETED         87.6    


  INCREMENT    18 STARTS. ATTEMPT NUMBER  1, TIME INCREMENT   37.4    
 
	UNSYMMETRIC NEW DIRECT SPARSE SOLVER RUNNING ON
 	1 HOST x 1 MPI RANK PER HOST x 1 THREAD PER RANK
        NUMBER OF EQUATIONS:  64
        NUMBER OF RHS:        1
        NUMBER OF FLOPS:      4.378e+04
        SOLVER ELAPSED TIME:  0ms

               CONVERGENCE CHECKS FOR EQUILIBRIUM ITERATION     1


 AVERAGE FORCE                      2.920E-02   TIME AVG. FORCE       6.137E-03
 LARGEST SCALED RESIDUAL FORCE     -4.266E-04   AT NODE          7   DOF  2
  CORRESPONDING RESIDUAL FORCE     -4.266E-04
 LARGEST INCREMENT OF DISP.        -1.117E-02   AT NODE          3   DOF  1
 LARGEST CORRECTION TO DISP.       -8.666E-04   AT NODE          3   DOF  1
          FORCE     EQUILIBRIUM NOT ACHIEVED WITHIN TOLERANCE.

 AVERAGE HEAT FLUX                  5.850E-04   TIME AVG. HEAT FLUX   1.232E-03
 LARGEST RESIDUAL HEAT FLUX        -4.643E-07   AT NODE          6   DOF 11
 LARGEST INCREMENT OF TEMP.          149.       AT NODE          1   DOF 11
 LARGEST CORRECTION TO TEMP.         1.49       AT NODE          6   DOF 11
          THE HEAT FLUX EQUILIBRIUM EQUATIONS HAVE CONVERGED
 
	UNSYMMETRIC NEW DIRECT SPARSE SOLVER RUNNING ON
 	1 HOST x 1 MPI RANK PER HOST x 1 THREAD PER RANK
        NUMBER OF EQUATIONS:  64
        NUMBER OF RHS:        1
        NUMBER OF FLOPS:      4.378e+04
        SOLVER ELAPSED TIME:  0ms

               CONVERGENCE CHECKS FOR EQUILIBRIUM ITERATION     2


 AVERAGE FORCE                      2.905E-02   TIME AVG. FORCE       6.129E-03
 LARGEST SCALED RESIDUAL FORCE     -1.140E-05   AT NODE          7   DOF  2
  CORRESPONDING RESIDUAL FORCE     -1.140E-05
 LARGEST INCREMENT OF DISP.        -1.122E-02   AT NODE          3   DOF  1
 LARGEST CORRECTION TO DISP.        8.277E-05   AT NODE          2   DOF  1
          THE FORCE     EQUILIBRIUM EQUATIONS HAVE CONVERGED

 AVERAGE HEAT FLUX                  5.847E-04   TIME AVG. HEAT FLUX   1.232E-03
 LARGEST RESIDUAL HEAT FLUX        -3.747E-08   AT NODE          7   DOF 11
 LARGEST INCREMENT OF TEMP.          149.       AT NODE          1   DOF 11
 LARGEST CORRECTION TO TEMP.       -5.392E-02   AT NODE          7   DOF 11
          THE HEAT FLUX EQUILIBRIUM EQUATIONS HAVE CONVERGED

 MAXIMUM NON-PRESCRIBED INCREMENT IN TEMPERATURE IS   -78.6    

 ITERATION SUMMARY FOR THE INCREMENT:   2 TOTAL ITERATIONS, OF WHICH
   0 ARE SEVERE DISCONTINUITY ITERATIONS AND  2 ARE EQUILIBRIUM ITERATIONS.

 TIME INCREMENT COMPLETED   37.4    ,  FRACTION OF STEP COMPLETED  0.139    
 STEP TIME COMPLETED        125.    ,  TOTAL TIME COMPLETED         125.    


  INCREMENT    19 STARTS. ATTEMPT NUMBER  1, TIME INCREMENT   37.4    
 
	UNSYMMETRIC NEW DIRECT SPARSE SOLVER RUNNING ON
 	1 HOST x 1 MPI RANK PER HOST x 1 THREAD PER RANK
        NUMBER OF EQUATIONS:  64
        NUMBER OF RHS:        1
        NUMBER OF FLOPS:      4.378e+04
        SOLVER ELAPSED TIME:  0ms

               CONVERGENCE CHECKS FOR EQUILIBRIUM ITERATION     1


 AVERAGE FORCE                      3.781E-02   TIME AVG. FORCE       7.796E-03
 LARGEST SCALED RESIDUAL FORCE     -2.677E-04   AT NODE          7   DOF  2
  CORRESPONDING RESIDUAL FORCE     -2.677E-04
 LARGEST INCREMENT OF DISP.        -1.208E-02   AT NODE          3   DOF  1
 LARGEST CORRECTION TO DISP.       -8.579E-04   AT NODE          3   DOF  1
          FORCE     EQUILIBRIUM NOT ACHIEVED WITHIN TOLERANCE.

 AVERAGE HEAT FLUX                  6.073E-04   TIME AVG. HEAT FLUX   1.199E-03
 LARGEST RESIDUAL HEAT FLUX        -5.030E-07   AT NODE          6   DOF 11
 LARGEST INCREMENT OF TEMP.          149.       AT NODE          1   DOF 11
 LARGEST CORRECTION TO TEMP.        -7.17       AT NODE          7   DOF 11
 ESTIMATE OF TEMP.    CORRECTION   -5.946E-02
 HEAT FLUX EQUILIB. ACCEPTED BASED ON SMALL RESIDUAL AND ESTIMATED CORRECTION
 
	UNSYMMETRIC NEW DIRECT SPARSE SOLVER RUNNING ON
 	1 HOST x 1 MPI RANK PER HOST x 1 THREAD PER RANK
        NUMBER OF EQUATIONS:  64
        NUMBER OF RHS:        1
        NUMBER OF FLOPS:      4.378e+04
        SOLVER ELAPSED TIME:  0ms

               CONVERGENCE CHECKS FOR EQUILIBRIUM ITERATION     2


 AVERAGE FORCE                      3.777E-02   TIME AVG. FORCE       7.794E-03
 LARGEST SCALED RESIDUAL FORCE      1.771E-05   AT NODE          7   DOF  3
  CORRESPONDING RESIDUAL FORCE      1.771E-05
 LARGEST INCREMENT OF DISP.        -1.214E-02   AT NODE          3   DOF  1
 LARGEST CORRECTION TO DISP.        9.745E-05   AT NODE          2   DOF  1
          THE FORCE     EQUILIBRIUM EQUATIONS HAVE CONVERGED

 AVERAGE HEAT FLUX                  6.069E-04   TIME AVG. HEAT FLUX   1.199E-03
 LARGEST RESIDUAL HEAT FLUX        -4.631E-08   AT NODE          7   DOF 11
 LARGEST INCREMENT OF TEMP.          149.       AT NODE          1   DOF 11
 LARGEST CORRECTION TO TEMP.       -5.970E-02   AT NODE          7   DOF 11
          THE HEAT FLUX EQUILIBRIUM EQUATIONS HAVE CONVERGED

 MAXIMUM NON-PRESCRIBED INCREMENT IN TEMPERATURE IS   -85.8    

 ITERATION SUMMARY FOR THE INCREMENT:   2 TOTAL ITERATIONS, OF WHICH
   0 ARE SEVERE DISCONTINUITY ITERATIONS AND  2 ARE EQUILIBRIUM ITERATIONS.

 TIME INCREMENT COMPLETED   37.4    ,  FRACTION OF STEP COMPLETED  0.180    
 STEP TIME COMPLETED        162.    ,  TOTAL TIME COMPLETED         162.    


  INCREMENT    20 STARTS. ATTEMPT NUMBER  1, TIME INCREMENT   37.4    
 
	UNSYMMETRIC NEW DIRECT SPARSE SOLVER RUNNING ON
 	1 HOST x 1 MPI RANK PER HOST x 1 THREAD PER RANK
        NUMBER OF EQUATIONS:  64
        NUMBER OF RHS:        1
        NUMBER OF FLOPS:      4.378e+04
        SOLVER ELAPSED TIME:  0ms

               CONVERGENCE CHECKS FOR EQUILIBRIUM ITERATION     1


 AVERAGE FORCE                      4.654E-02   TIME AVG. FORCE       9.731E-03
 LARGEST SCALED RESIDUAL FORCE     -3.921E-04   AT NODE          7   DOF  2
  CORRESPONDING RESIDUAL FORCE     -3.921E-04
 LARGEST INCREMENT OF DISP.        -1.313E-02   AT NODE          3   DOF  1
 LARGEST CORRECTION TO DISP.       -9.860E-04   AT NODE          3   DOF  1
          FORCE     EQUILIBRIUM NOT ACHIEVED WITHIN TOLERANCE.

 AVERAGE HEAT FLUX                  6.334E-04   TIME AVG. HEAT FLUX   1.171E-03
 LARGEST RESIDUAL HEAT FLUX        -5.571E-07   AT NODE          6   DOF 11
 LARGEST INCREMENT OF TEMP.          149.       AT NODE          1   DOF 11
 LARGEST CORRECTION TO TEMP.        -5.01       AT NODE          7   DOF 11
 ESTIMATE OF TEMP.    CORRECTION   -6.733E-02
 HEAT FLUX EQUILIB. ACCEPTED BASED ON SMALL RESIDUAL AND ESTIMATED CORRECTION
 
	UNSYMMETRIC NEW DIRECT SPARSE SOLVER RUNNING ON
 	1 HOST x 1 MPI RANK PER HOST x 1 THREAD PER RANK
        NUMBER OF EQUATIONS:  64
        NUMBER OF RHS:        1
        NUMBER OF FLOPS:      4.378e+04
        SOLVER ELAPSED TIME:  0ms

               CONVERGENCE CHECKS FOR EQUILIBRIUM ITERATION     2


 AVERAGE FORCE                      4.648E-02   TIME AVG. FORCE       9.728E-03
 LARGEST SCALED RESIDUAL FORCE     -3.117E-05   AT NODE          7   DOF  2
  CORRESPONDING RESIDUAL FORCE     -3.117E-05
 LARGEST INCREMENT OF DISP.        -1.321E-02   AT NODE          3   DOF  1
 LARGEST CORRECTION TO DISP.        1.312E-04   AT NODE          2   DOF  1
          THE FORCE     EQUILIBRIUM EQUATIONS HAVE CONVERGED

 AVERAGE HEAT FLUX                  6.330E-04   TIME AVG. HEAT FLUX   1.171E-03
 LARGEST RESIDUAL HEAT FLUX        -6.645E-08   AT NODE          7   DOF 11
 LARGEST INCREMENT OF TEMP.          149.       AT NODE          1   DOF 11
 LARGEST CORRECTION TO TEMP.       -6.827E-02   AT NODE          7   DOF 11
          THE HEAT FLUX EQUILIBRIUM EQUATIONS HAVE CONVERGED

 MAXIMUM NON-PRESCRIBED INCREMENT IN TEMPERATURE IS   -90.9    

 ITERATION SUMMARY FOR THE INCREMENT:   2 TOTAL ITERATIONS, OF WHICH
   0 ARE SEVERE DISCONTINUITY ITERATIONS AND  2 ARE EQUILIBRIUM ITERATIONS.

 TIME INCREMENT COMPLETED   37.4    ,  FRACTION OF STEP COMPLETED  0.222    
 STEP TIME COMPLETED        200.    ,  TOTAL TIME COMPLETED         200.    


  INCREMENT    21 STARTS. ATTEMPT NUMBER  1, TIME INCREMENT   37.4    
 
	UNSYMMETRIC NEW DIRECT SPARSE SOLVER RUNNING ON
 	1 HOST x 1 MPI RANK PER HOST x 1 THREAD PER RANK
        NUMBER OF EQUATIONS:  64
        NUMBER OF RHS:        1
        NUMBER OF FLOPS:      4.378e+04
        SOLVER ELAPSED TIME:  0ms

               CONVERGENCE CHECKS FOR EQUILIBRIUM ITERATION     1


 AVERAGE FORCE                      5.529E-02   TIME AVG. FORCE       1.190E-02
 LARGEST SCALED RESIDUAL FORCE     -5.943E-04   AT NODE          7   DOF  2
  CORRESPONDING RESIDUAL FORCE     -5.943E-04
 LARGEST INCREMENT OF DISP.        -1.437E-02   AT NODE          3   DOF  1
 LARGEST CORRECTION TO DISP.       -1.162E-03   AT NODE          3   DOF  1
          FORCE     EQUILIBRIUM NOT ACHIEVED WITHIN TOLERANCE.

 AVERAGE HEAT FLUX                  6.651E-04   TIME AVG. HEAT FLUX   1.147E-03
 LARGEST RESIDUAL HEAT FLUX        -6.587E-07   AT NODE          6   DOF 11
 LARGEST INCREMENT OF TEMP.          149.       AT NODE          1   DOF 11
 LARGEST CORRECTION TO TEMP.        -2.18       AT NODE          7   DOF 11
 ESTIMATE OF TEMP.    CORRECTION   -8.452E-02
 HEAT FLUX EQUILIB. ACCEPTED BASED ON SMALL RESIDUAL AND ESTIMATED CORRECTION
 
	UNSYMMETRIC NEW DIRECT SPARSE SOLVER RUNNING ON
 	1 HOST x 1 MPI RANK PER HOST x 1 THREAD PER RANK
        NUMBER OF EQUATIONS:  64
        NUMBER OF RHS:        1
        NUMBER OF FLOPS:      4.378e+04
        SOLVER ELAPSED TIME:  0ms

               CONVERGENCE CHECKS FOR EQUILIBRIUM ITERATION     2


 AVERAGE FORCE                      5.518E-02   TIME AVG. FORCE       1.189E-02
 LARGEST SCALED RESIDUAL FORCE     -5.383E-05   AT NODE          7   DOF  2
  CORRESPONDING RESIDUAL FORCE     -5.383E-05
 LARGEST INCREMENT OF DISP.        -1.449E-02   AT NODE          3   DOF  1
 LARGEST CORRECTION TO DISP.        1.775E-04   AT NODE          2   DOF  1
 ESTIMATE OF DISP.    CORRECTION    1.608E-05
 FORCE     EQUILIB. ACCEPTED BASED ON SMALL RESIDUAL AND ESTIMATED CORRECTION

 AVERAGE HEAT FLUX                  6.647E-04   TIME AVG. HEAT FLUX   1.147E-03
 LARGEST RESIDUAL HEAT FLUX        -9.653E-08   AT NODE          7   DOF 11
 LARGEST INCREMENT OF TEMP.          149.       AT NODE          1   DOF 11
 LARGEST CORRECTION TO TEMP.       -8.416E-02   AT NODE          7   DOF 11
          THE HEAT FLUX EQUILIBRIUM EQUATIONS HAVE CONVERGED

 MAXIMUM NON-PRESCRIBED INCREMENT IN TEMPERATURE IS   -93.2    

 ITERATION SUMMARY FOR THE INCREMENT:   2 TOTAL ITERATIONS, OF WHICH
   0 ARE SEVERE DISCONTINUITY ITERATIONS AND  2 ARE EQUILIBRIUM ITERATIONS.

 TIME INCREMENT COMPLETED   37.4    ,  FRACTION OF STEP COMPLETED  0.263    
 STEP TIME COMPLETED        237.    ,  TOTAL TIME COMPLETED         237.    


  INCREMENT    22 STARTS. ATTEMPT NUMBER  1, TIME INCREMENT   37.4    
 
	UNSYMMETRIC NEW DIRECT SPARSE SOLVER RUNNING ON
 	1 HOST x 1 MPI RANK PER HOST x 1 THREAD PER RANK
        NUMBER OF EQUATIONS:  64
        NUMBER OF RHS:        1
        NUMBER OF FLOPS:      4.378e+04
        SOLVER ELAPSED TIME:  0ms

               CONVERGENCE CHECKS FOR EQUILIBRIUM ITERATION     1


 AVERAGE FORCE                      6.381E-02   TIME AVG. FORCE       1.425E-02
 LARGEST SCALED RESIDUAL FORCE      4.370E-04   AT NODE          2   DOF  1
  CORRESPONDING RESIDUAL FORCE      4.370E-04
 LARGEST INCREMENT OF DISP.        -1.561E-02   AT NODE          3   DOF  1
 LARGEST CORRECTION TO DISP.       -1.120E-03   AT NODE          3   DOF  1
          FORCE     EQUILIBRIUM NOT ACHIEVED WITHIN TOLERANCE.

 AVERAGE HEAT FLUX                  6.905E-04   TIME AVG. HEAT FLUX   1.126E-03
 LARGEST RESIDUAL HEAT FLUX        -6.864E-07   AT NODE          6   DOF 11
 LARGEST INCREMENT OF TEMP.          149.       AT NODE          1   DOF 11
 LARGEST CORRECTION TO TEMP.        -7.59       AT NODE          7   DOF 11
 ESTIMATE OF TEMP.    CORRECTION   -8.677E-02
 HEAT FLUX EQUILIB. ACCEPTED BASED ON SMALL RESIDUAL AND ESTIMATED CORRECTION
 
	UNSYMMETRIC NEW DIRECT SPARSE SOLVER RUNNING ON
 	1 HOST x 1 MPI RANK PER HOST x 1 THREAD PER RANK
        NUMBER OF EQUATIONS:  64
        NUMBER OF RHS:        1
        NUMBER OF FLOPS:      4.378e+04
        SOLVER ELAPSED TIME:  0ms

               CONVERGENCE CHECKS FOR EQUILIBRIUM ITERATION     2


 AVERAGE FORCE                      6.371E-02   TIME AVG. FORCE       1.425E-02
 LARGEST SCALED RESIDUAL FORCE     -6.462E-05   AT NODE          7   DOF  2
  CORRESPONDING RESIDUAL FORCE     -6.462E-05
 LARGEST INCREMENT OF DISP.        -1.573E-02   AT NODE          3   DOF  1
 LARGEST CORRECTION TO DISP.        1.820E-04   AT NODE          2   DOF  1
 ESTIMATE OF DISP.    CORRECTION   -2.691E-05
 FORCE     EQUILIB. ACCEPTED BASED ON SMALL RESIDUAL AND ESTIMATED CORRECTION

 AVERAGE HEAT FLUX                  6.901E-04   TIME AVG. HEAT FLUX   1.126E-03
 LARGEST RESIDUAL HEAT FLUX        -1.050E-07   AT NODE          7   DOF 11
 LARGEST INCREMENT OF TEMP.          149.       AT NODE          1   DOF 11
 LARGEST CORRECTION TO TEMP.       -9.085E-02   AT NODE          7   DOF 11
          THE HEAT FLUX EQUILIBRIUM EQUATIONS HAVE CONVERGED

 MAXIMUM NON-PRESCRIBED INCREMENT IN TEMPERATURE IS   -101.    
 

 ***NOTE: THE TIME INTEGRATION ACCURACY TOLERANCE HAS BEEN EXCEEDED.


  INCREMENT    22 STARTS. ATTEMPT NUMBER  2, TIME INCREMENT   31.5    
 
	UNSYMMETRIC NEW DIRECT SPARSE SOLVER RUNNING ON
 	1 HOST x 1 MPI RANK PER HOST x 1 THREAD PER RANK
        NUMBER OF EQUATIONS:  64
        NUMBER OF RHS:        1
        NUMBER OF FLOPS:      4.378e+04
        SOLVER ELAPSED TIME:  0ms

               CONVERGENCE CHECKS FOR EQUILIBRIUM ITERATION     1


 AVERAGE FORCE                      6.245E-02   TIME AVG. FORCE       1.419E-02
 LARGEST SCALED RESIDUAL FORCE      4.097E-04   AT NODE          2   DOF  1
  CORRESPONDING RESIDUAL FORCE      4.097E-04
 LARGEST INCREMENT OF DISP.        -1.307E-02   AT NODE          3   DOF  1
 LARGEST CORRECTION TO DISP.       -8.611E-04   AT NODE          3   DOF  1
          FORCE     EQUILIBRIUM NOT ACHIEVED WITHIN TOLERANCE.

 AVERAGE HEAT FLUX                  6.865E-04   TIME AVG. HEAT FLUX   1.126E-03
 LARGEST RESIDUAL HEAT FLUX        -5.292E-07   AT NODE          6   DOF 11
 LARGEST INCREMENT OF TEMP.          126.       AT NODE          1   DOF 11
 LARGEST CORRECTION TO TEMP.        -6.50       AT NODE          7   DOF 11
 ESTIMATE OF TEMP.    CORRECTION   -5.598E-02
 HEAT FLUX EQUILIB. ACCEPTED BASED ON SMALL RESIDUAL AND ESTIMATED CORRECTION
 
	UNSYMMETRIC NEW DIRECT SPARSE SOLVER RUNNING ON
 	1 HOST x 1 MPI RANK PER HOST x 1 THREAD PER RANK
        NUMBER OF EQUATIONS:  64
        NUMBER OF RHS:        1
        NUMBER OF FLOPS:      4.378e+04
        SOLVER ELAPSED TIME:  0ms

               CONVERGENCE CHECKS FOR EQUILIBRIUM ITERATION     2


 AVERAGE FORCE                      6.237E-02   TIME AVG. FORCE       1.419E-02
 LARGEST SCALED RESIDUAL FORCE     -3.837E-05   AT NODE          7   DOF  2
  CORRESPONDING RESIDUAL FORCE     -3.837E-05
 LARGEST INCREMENT OF DISP.        -1.315E-02   AT NODE          3   DOF  1
 LARGEST CORRECTION TO DISP.        1.218E-04   AT NODE          2   DOF  1
          THE FORCE     EQUILIBRIUM EQUATIONS HAVE CONVERGED

 AVERAGE HEAT FLUX                  6.862E-04   TIME AVG. HEAT FLUX   1.126E-03
 LARGEST RESIDUAL HEAT FLUX        -6.805E-08   AT NODE          7   DOF 11
 LARGEST INCREMENT OF TEMP.          126.       AT NODE          1   DOF 11
 LARGEST CORRECTION TO TEMP.       -5.861E-02   AT NODE          7   DOF 11
          THE HEAT FLUX EQUILIBRIUM EQUATIONS HAVE CONVERGED

 MAXIMUM NON-PRESCRIBED INCREMENT IN TEMPERATURE IS   -85.1    

 ITERATION SUMMARY FOR THE INCREMENT:   2 TOTAL ITERATIONS, OF WHICH
   0 ARE SEVERE DISCONTINUITY ITERATIONS AND  2 ARE EQUILIBRIUM ITERATIONS.

 TIME INCREMENT COMPLETED   31.5    ,  FRACTION OF STEP COMPLETED  0.298    
 STEP TIME COMPLETED        269.    ,  TOTAL TIME COMPLETED         269.    


  INCREMENT    23 STARTS. ATTEMPT NUMBER  1, TIME INCREMENT   31.5    
 
	UNSYMMETRIC NEW DIRECT SPARSE SOLVER RUNNING ON
 	1 HOST x 1 MPI RANK PER HOST x 1 THREAD PER RANK
        NUMBER OF EQUATIONS:  64
        NUMBER OF RHS:        1
        NUMBER OF FLOPS:      4.378e+04
        SOLVER ELAPSED TIME:  0ms

               CONVERGENCE CHECKS FOR EQUILIBRIUM ITERATION     1


 AVERAGE FORCE                      6.956E-02   TIME AVG. FORCE       1.659E-02
 LARGEST SCALED RESIDUAL FORCE     -4.025E-04   AT NODE          7   DOF  2
  CORRESPONDING RESIDUAL FORCE     -4.025E-04
 LARGEST INCREMENT OF DISP.        -1.418E-02   AT NODE          3   DOF  1
 LARGEST CORRECTION TO DISP.       -1.038E-03   AT NODE          3   DOF  1
          FORCE     EQUILIBRIUM NOT ACHIEVED WITHIN TOLERANCE.

 AVERAGE HEAT FLUX                  7.186E-04   TIME AVG. HEAT FLUX   1.108E-03
 LARGEST RESIDUAL HEAT FLUX        -6.220E-07   AT NODE          6   DOF 11
 LARGEST INCREMENT OF TEMP.          126.       AT NODE          1   DOF 11
 LARGEST CORRECTION TO TEMP.       -0.192       AT NODE          7   DOF 11
          THE HEAT FLUX EQUILIBRIUM EQUATIONS HAVE CONVERGED
 
	UNSYMMETRIC NEW DIRECT SPARSE SOLVER RUNNING ON
 	1 HOST x 1 MPI RANK PER HOST x 1 THREAD PER RANK
        NUMBER OF EQUATIONS:  64
        NUMBER OF RHS:        1
        NUMBER OF FLOPS:      4.378e+04
        SOLVER ELAPSED TIME:  0ms

               CONVERGENCE CHECKS FOR EQUILIBRIUM ITERATION     2


 AVERAGE FORCE                      6.950E-02   TIME AVG. FORCE       1.659E-02
 LARGEST SCALED RESIDUAL FORCE     -6.078E-05   AT NODE          7   DOF  2
  CORRESPONDING RESIDUAL FORCE     -6.078E-05
 LARGEST INCREMENT OF DISP.        -1.428E-02   AT NODE          3   DOF  1
 LARGEST CORRECTION TO DISP.        1.614E-04   AT NODE          2   DOF  1
 ESTIMATE OF DISP.    CORRECTION    2.437E-05
 FORCE     EQUILIB. ACCEPTED BASED ON SMALL RESIDUAL AND ESTIMATED CORRECTION

 AVERAGE HEAT FLUX                  7.182E-04   TIME AVG. HEAT FLUX   1.108E-03
 LARGEST RESIDUAL HEAT FLUX        -9.665E-08   AT NODE          7   DOF 11
 LARGEST INCREMENT OF TEMP.          126.       AT NODE          1   DOF 11
 LARGEST CORRECTION TO TEMP.       -7.198E-02   AT NODE          7   DOF 11
          THE HEAT FLUX EQUILIBRIUM EQUATIONS HAVE CONVERGED

 MAXIMUM NON-PRESCRIBED INCREMENT IN TEMPERATURE IS   -85.3    

 ITERATION SUMMARY FOR THE INCREMENT:   2 TOTAL ITERATIONS, OF WHICH
   0 ARE SEVERE DISCONTINUITY ITERATIONS AND  2 ARE EQUILIBRIUM ITERATIONS.

 TIME INCREMENT COMPLETED   31.5    ,  FRACTION OF STEP COMPLETED  0.333    
 STEP TIME COMPLETED        300.    ,  TOTAL TIME COMPLETED         300.    


  INCREMENT    24 STARTS. ATTEMPT NUMBER  1, TIME INCREMENT   31.5    
 
	UNSYMMETRIC NEW DIRECT SPARSE SOLVER RUNNING ON
 	1 HOST x 1 MPI RANK PER HOST x 1 THREAD PER RANK
        NUMBER OF EQUATIONS:  64
        NUMBER OF RHS:        1
        NUMBER OF FLOPS:      4.378e+04
        SOLVER ELAPSED TIME:  0ms

               CONVERGENCE CHECKS FOR EQUILIBRIUM ITERATION     1


 AVERAGE FORCE                      7.659E-02   TIME AVG. FORCE       1.909E-02
 LARGEST SCALED RESIDUAL FORCE      4.689E-04   AT NODE          2   DOF  1
  CORRESPONDING RESIDUAL FORCE      4.689E-04
 LARGEST INCREMENT OF DISP.        -1.538E-02   AT NODE          3   DOF  1
 LARGEST CORRECTION TO DISP.       -1.099E-03   AT NODE          3   DOF  1
          FORCE     EQUILIBRIUM NOT ACHIEVED WITHIN TOLERANCE.

 AVERAGE HEAT FLUX                  7.506E-04   TIME AVG. HEAT FLUX   1.093E-03
 LARGEST RESIDUAL HEAT FLUX        -6.778E-07   AT NODE          6   DOF 11
 LARGEST INCREMENT OF TEMP.          126.       AT NODE          1   DOF 11
 LARGEST CORRECTION TO TEMP.        -1.33       AT NODE          7   DOF 11
 ESTIMATE OF TEMP.    CORRECTION   -8.323E-02
 HEAT FLUX EQUILIB. ACCEPTED BASED ON SMALL RESIDUAL AND ESTIMATED CORRECTION
 
	UNSYMMETRIC NEW DIRECT SPARSE SOLVER RUNNING ON
 	1 HOST x 1 MPI RANK PER HOST x 1 THREAD PER RANK
        NUMBER OF EQUATIONS:  64
        NUMBER OF RHS:        1
        NUMBER OF FLOPS:      4.378e+04
        SOLVER ELAPSED TIME:  0ms

               CONVERGENCE CHECKS FOR EQUILIBRIUM ITERATION     2


 AVERAGE FORCE                      7.650E-02   TIME AVG. FORCE       1.909E-02
 LARGEST SCALED RESIDUAL FORCE     -8.164E-05   AT NODE          7   DOF  2
  CORRESPONDING RESIDUAL FORCE     -8.164E-05
 LARGEST INCREMENT OF DISP.        -1.550E-02   AT NODE          3   DOF  1
 LARGEST CORRECTION TO DISP.        1.839E-04   AT NODE          2   DOF  1
 ESTIMATE OF DISP.    CORRECTION   -3.202E-05
 FORCE     EQUILIB. ACCEPTED BASED ON SMALL RESIDUAL AND ESTIMATED CORRECTION

 AVERAGE HEAT FLUX                  7.502E-04   TIME AVG. HEAT FLUX   1.093E-03
 LARGEST RESIDUAL HEAT FLUX        -1.190E-07   AT NODE          7   DOF 11
 LARGEST INCREMENT OF TEMP.          126.       AT NODE          1   DOF 11
 LARGEST CORRECTION TO TEMP.       -8.043E-02   AT NODE          7   DOF 11
          THE HEAT FLUX EQUILIBRIUM EQUATIONS HAVE CONVERGED

 MAXIMUM NON-PRESCRIBED INCREMENT IN TEMPERATURE IS   -86.8    

 ITERATION SUMMARY FOR THE INCREMENT:   2 TOTAL ITERATIONS, OF WHICH
   0 ARE SEVERE DISCONTINUITY ITERATIONS AND  2 ARE EQUILIBRIUM ITERATIONS.

 TIME INCREMENT COMPLETED   31.5    ,  FRACTION OF STEP COMPLETED  0.368    
 STEP TIME COMPLETED        332.    ,  TOTAL TIME COMPLETED         332.    


  INCREMENT    25 STARTS. ATTEMPT NUMBER  1, TIME INCREMENT   31.5    
 
	UNSYMMETRIC NEW DIRECT SPARSE SOLVER RUNNING ON
 	1 HOST x 1 MPI RANK PER HOST x 1 THREAD PER RANK
        NUMBER OF EQUATIONS:  64
        NUMBER OF RHS:        1
        NUMBER OF FLOPS:      4.378e+04
        SOLVER ELAPSED TIME:  0ms

               CONVERGENCE CHECKS FOR EQUILIBRIUM ITERATION     1


 AVERAGE FORCE                      8.335E-02   TIME AVG. FORCE       2.166E-02
 LARGEST SCALED RESIDUAL FORCE      9.166E-04   AT NODE          2   DOF  1
  CORRESPONDING RESIDUAL FORCE      9.166E-04
 LARGEST INCREMENT OF DISP.        -1.637E-02   AT NODE          3   DOF  1
 LARGEST CORRECTION TO DISP.       -8.693E-04   AT NODE          3   DOF  1
          FORCE     EQUILIBRIUM NOT ACHIEVED WITHIN TOLERANCE.

 AVERAGE HEAT FLUX                  7.672E-04   TIME AVG. HEAT FLUX   1.080E-03
 LARGEST RESIDUAL HEAT FLUX        -6.111E-07   AT NODE          6   DOF 11
 LARGEST INCREMENT OF TEMP.          126.       AT NODE          1   DOF 11
 LARGEST CORRECTION TO TEMP.        -9.72       AT NODE          7   DOF 11
 ESTIMATE OF TEMP.    CORRECTION   -6.814E-02
 HEAT FLUX EQUILIB. ACCEPTED BASED ON SMALL RESIDUAL AND ESTIMATED CORRECTION
 
	UNSYMMETRIC NEW DIRECT SPARSE SOLVER RUNNING ON
 	1 HOST x 1 MPI RANK PER HOST x 1 THREAD PER RANK
        NUMBER OF EQUATIONS:  64
        NUMBER OF RHS:        1
        NUMBER OF FLOPS:      4.378e+04
        SOLVER ELAPSED TIME:  0ms

               CONVERGENCE CHECKS FOR EQUILIBRIUM ITERATION     2


 AVERAGE FORCE                      8.316E-02   TIME AVG. FORCE       2.165E-02
 LARGEST SCALED RESIDUAL FORCE      6.754E-05   AT NODE          7   DOF  3
  CORRESPONDING RESIDUAL FORCE      6.754E-05
 LARGEST INCREMENT OF DISP.        -1.646E-02   AT NODE          3   DOF  1
 LARGEST CORRECTION TO DISP.        1.375E-04   AT NODE          2   DOF  1
          THE FORCE     EQUILIBRIUM EQUATIONS HAVE CONVERGED

 AVERAGE HEAT FLUX                  7.668E-04   TIME AVG. HEAT FLUX   1.080E-03
 LARGEST RESIDUAL HEAT FLUX        -9.400E-08   AT NODE          7   DOF 11
 LARGEST INCREMENT OF TEMP.          126.       AT NODE          1   DOF 11
 LARGEST CORRECTION TO TEMP.       -7.438E-02   AT NODE          7   DOF 11
          THE HEAT FLUX EQUILIBRIUM EQUATIONS HAVE CONVERGED

 MAXIMUM NON-PRESCRIBED INCREMENT IN TEMPERATURE IS   -96.6    

 ITERATION SUMMARY FOR THE INCREMENT:   2 TOTAL ITERATIONS, OF WHICH
   0 ARE SEVERE DISCONTINUITY ITERATIONS AND  2 ARE EQUILIBRIUM ITERATIONS.

 TIME INCREMENT COMPLETED   31.5    ,  FRACTION OF STEP COMPLETED  0.403    
 STEP TIME COMPLETED        363.    ,  TOTAL TIME COMPLETED         363.    


  INCREMENT    26 STARTS. ATTEMPT NUMBER  1, TIME INCREMENT   31.5    
 
	UNSYMMETRIC NEW DIRECT SPARSE SOLVER RUNNING ON
 	1 HOST x 1 MPI RANK PER HOST x 1 THREAD PER RANK
        NUMBER OF EQUATIONS:  64
        NUMBER OF RHS:        1
        NUMBER OF FLOPS:      4.378e+04
        SOLVER ELAPSED TIME:  0ms

               CONVERGENCE CHECKS FOR EQUILIBRIUM ITERATION     1


 AVERAGE FORCE                      8.974E-02   TIME AVG. FORCE       2.427E-02
 LARGEST SCALED RESIDUAL FORCE      8.087E-04   AT NODE          2   DOF  1
  CORRESPONDING RESIDUAL FORCE      8.087E-04
 LARGEST INCREMENT OF DISP.        -1.771E-02   AT NODE          3   DOF  1
 LARGEST CORRECTION TO DISP.       -1.255E-03   AT NODE          3   DOF  1
          FORCE     EQUILIBRIUM NOT ACHIEVED WITHIN TOLERANCE.

 AVERAGE HEAT FLUX                  8.037E-04   TIME AVG. HEAT FLUX   1.069E-03
 LARGEST RESIDUAL HEAT FLUX        -8.073E-07   AT NODE          6   DOF 11
 LARGEST INCREMENT OF TEMP.          126.       AT NODE          1   DOF 11
 LARGEST CORRECTION TO TEMP.       -0.688       AT NODE          7   DOF 11
          THE HEAT FLUX EQUILIBRIUM EQUATIONS HAVE CONVERGED
 
	UNSYMMETRIC NEW DIRECT SPARSE SOLVER RUNNING ON
 	1 HOST x 1 MPI RANK PER HOST x 1 THREAD PER RANK
        NUMBER OF EQUATIONS:  64
        NUMBER OF RHS:        1
        NUMBER OF FLOPS:      4.378e+04
        SOLVER ELAPSED TIME:  0ms

               CONVERGENCE CHECKS FOR EQUILIBRIUM ITERATION     2


 AVERAGE FORCE                      8.961E-02   TIME AVG. FORCE       2.426E-02
 LARGEST SCALED RESIDUAL FORCE     -1.328E-04   AT NODE          7   DOF  2
  CORRESPONDING RESIDUAL FORCE     -1.328E-04
 LARGEST INCREMENT OF DISP.        -1.786E-02   AT NODE          3   DOF  1
 LARGEST CORRECTION TO DISP.        2.263E-04   AT NODE          2   DOF  1
          FORCE     EQUILIBRIUM NOT ACHIEVED WITHIN TOLERANCE.

 AVERAGE HEAT FLUX                  8.033E-04   TIME AVG. HEAT FLUX   1.069E-03
 LARGEST RESIDUAL HEAT FLUX        -1.659E-07   AT NODE          7   DOF 11
 LARGEST INCREMENT OF TEMP.          126.       AT NODE          1   DOF 11
 LARGEST CORRECTION TO TEMP.       -0.105       AT NODE          7   DOF 11
          THE HEAT FLUX EQUILIBRIUM EQUATIONS HAVE CONVERGED
 
	UNSYMMETRIC NEW DIRECT SPARSE SOLVER RUNNING ON
 	1 HOST x 1 MPI RANK PER HOST x 1 THREAD PER RANK
        NUMBER OF EQUATIONS:  64
        NUMBER OF RHS:        1
        NUMBER OF FLOPS:      4.378e+04
        SOLVER ELAPSED TIME:  0ms

               CONVERGENCE CHECKS FOR EQUILIBRIUM ITERATION     3


 AVERAGE FORCE                      8.959E-02   TIME AVG. FORCE       2.426E-02
 LARGEST SCALED RESIDUAL FORCE      2.375E-05   AT NODE          7   DOF  3
  CORRESPONDING RESIDUAL FORCE      2.375E-05
 LARGEST INCREMENT OF DISP.        -1.789E-02   AT NODE          3   DOF  1
 LARGEST CORRECTION TO DISP.       -4.266E-05   AT NODE          7   DOF  2
          THE FORCE     EQUILIBRIUM EQUATIONS HAVE CONVERGED

 AVERAGE HEAT FLUX                  8.032E-04   TIME AVG. HEAT FLUX   1.069E-03
 LARGEST RESIDUAL HEAT FLUX        -3.383E-08   AT NODE          7   DOF 11
 LARGEST INCREMENT OF TEMP.          126.       AT NODE          1   DOF 11
 LARGEST CORRECTION TO TEMP.       -2.403E-02   AT NODE          7   DOF 11
          THE HEAT FLUX EQUILIBRIUM EQUATIONS HAVE CONVERGED

 MAXIMUM NON-PRESCRIBED INCREMENT IN TEMPERATURE IS   -97.4    

 ITERATION SUMMARY FOR THE INCREMENT:   3 TOTAL ITERATIONS, OF WHICH
   0 ARE SEVERE DISCONTINUITY ITERATIONS AND  3 ARE EQUILIBRIUM ITERATIONS.

 TIME INCREMENT COMPLETED   31.5    ,  FRACTION OF STEP COMPLETED  0.438    
 STEP TIME COMPLETED        395.    ,  TOTAL TIME COMPLETED         395.    


  INCREMENT    27 STARTS. ATTEMPT NUMBER  1, TIME INCREMENT   31.5    
 
	UNSYMMETRIC NEW DIRECT SPARSE SOLVER RUNNING ON
 	1 HOST x 1 MPI RANK PER HOST x 1 THREAD PER RANK
        NUMBER OF EQUATIONS:  64
        NUMBER OF RHS:        1
        NUMBER OF FLOPS:      4.378e+04
        SOLVER ELAPSED TIME:  0ms

               CONVERGENCE CHECKS FOR EQUILIBRIUM ITERATION     1


 AVERAGE FORCE                      9.593E-02   TIME AVG. FORCE       2.692E-02
 LARGEST SCALED RESIDUAL FORCE      1.320E-03   AT NODE          2   DOF  1
  CORRESPONDING RESIDUAL FORCE      1.320E-03
 LARGEST INCREMENT OF DISP.        -1.903E-02   AT NODE          3   DOF  1
 LARGEST CORRECTION TO DISP.       -1.135E-03   AT NODE          3   DOF  1
          FORCE     EQUILIBRIUM NOT ACHIEVED WITHIN TOLERANCE.

 AVERAGE HEAT FLUX                  8.322E-04   TIME AVG. HEAT FLUX   1.061E-03
 LARGEST RESIDUAL HEAT FLUX        -7.335E-07   AT NODE          6   DOF 11
 LARGEST INCREMENT OF TEMP.          126.       AT NODE          1   DOF 11
 LARGEST CORRECTION TO TEMP.        -5.32       AT NODE          7   DOF 11
 ESTIMATE OF TEMP.    CORRECTION   -9.190E-02
 HEAT FLUX EQUILIB. ACCEPTED BASED ON SMALL RESIDUAL AND ESTIMATED CORRECTION
 
	UNSYMMETRIC NEW DIRECT SPARSE SOLVER RUNNING ON
 	1 HOST x 1 MPI RANK PER HOST x 1 THREAD PER RANK
        NUMBER OF EQUATIONS:  64
        NUMBER OF RHS:        1
        NUMBER OF FLOPS:      4.378e+04
        SOLVER ELAPSED TIME:  0ms

               CONVERGENCE CHECKS FOR EQUILIBRIUM ITERATION     2


 AVERAGE FORCE                      9.567E-02   TIME AVG. FORCE       2.691E-02
 LARGEST SCALED RESIDUAL FORCE     -1.242E-04   AT NODE          7   DOF  2
  CORRESPONDING RESIDUAL FORCE     -1.242E-04
 LARGEST INCREMENT OF DISP.        -1.915E-02   AT NODE          3   DOF  1
 LARGEST CORRECTION TO DISP.        1.913E-04   AT NODE          2   DOF  1
          THE FORCE     EQUILIBRIUM EQUATIONS HAVE CONVERGED

 AVERAGE HEAT FLUX                  8.317E-04   TIME AVG. HEAT FLUX   1.061E-03
 LARGEST RESIDUAL HEAT FLUX        -1.479E-07   AT NODE          7   DOF 11
 LARGEST INCREMENT OF TEMP.          126.       AT NODE          1   DOF 11
 LARGEST CORRECTION TO TEMP.       -9.886E-02   AT NODE          7   DOF 11
          THE HEAT FLUX EQUILIBRIUM EQUATIONS HAVE CONVERGED

 MAXIMUM NON-PRESCRIBED INCREMENT IN TEMPERATURE IS   -103.    
 

 ***NOTE: THE TIME INTEGRATION ACCURACY TOLERANCE HAS BEEN EXCEEDED.


  INCREMENT    27 STARTS. ATTEMPT NUMBER  2, TIME INCREMENT   26.0    
 
	UNSYMMETRIC NEW DIRECT SPARSE SOLVER RUNNING ON
 	1 HOST x 1 MPI RANK PER HOST x 1 THREAD PER RANK
        NUMBER OF EQUATIONS:  64
        NUMBER OF RHS:        1
        NUMBER OF FLOPS:      4.378e+04
        SOLVER ELAPSED TIME:  0ms

               CONVERGENCE CHECKS FOR EQUILIBRIUM ITERATION     1


 AVERAGE FORCE                      9.483E-02   TIME AVG. FORCE       2.688E-02
 LARGEST SCALED RESIDUAL FORCE      9.685E-04   AT NODE          2   DOF  1
  CORRESPONDING RESIDUAL FORCE      9.685E-04
 LARGEST INCREMENT OF DISP.        -1.567E-02   AT NODE          3   DOF  1
 LARGEST CORRECTION TO DISP.       -8.762E-04   AT NODE          3   DOF  1
          FORCE     EQUILIBRIUM NOT ACHIEVED WITHIN TOLERANCE.

 AVERAGE HEAT FLUX                  8.288E-04   TIME AVG. HEAT FLUX   1.061E-03
 LARGEST RESIDUAL HEAT FLUX        -5.616E-07   AT NODE          6   DOF 11
 LARGEST INCREMENT OF TEMP.          104.       AT NODE          1   DOF 11
 LARGEST CORRECTION TO TEMP.        -3.84       AT NODE          7   DOF 11
 ESTIMATE OF TEMP.    CORRECTION   -5.766E-02
 HEAT FLUX EQUILIB. ACCEPTED BASED ON SMALL RESIDUAL AND ESTIMATED CORRECTION
 
	UNSYMMETRIC NEW DIRECT SPARSE SOLVER RUNNING ON
 	1 HOST x 1 MPI RANK PER HOST x 1 THREAD PER RANK
        NUMBER OF EQUATIONS:  64
        NUMBER OF RHS:        1
        NUMBER OF FLOPS:      4.378e+04
        SOLVER ELAPSED TIME:  0ms

               CONVERGENCE CHECKS FOR EQUILIBRIUM ITERATION     2


 AVERAGE FORCE                      9.464E-02   TIME AVG. FORCE       2.687E-02
 LARGEST SCALED RESIDUAL FORCE      7.822E-05   AT NODE          7   DOF  3
  CORRESPONDING RESIDUAL FORCE      7.822E-05
 LARGEST INCREMENT OF DISP.        -1.574E-02   AT NODE          3   DOF  1
 LARGEST CORRECTION TO DISP.        1.273E-04   AT NODE          2   DOF  1
          THE FORCE     EQUILIBRIUM EQUATIONS HAVE CONVERGED

 AVERAGE HEAT FLUX                  8.284E-04   TIME AVG. HEAT FLUX   1.061E-03
 LARGEST RESIDUAL HEAT FLUX        -9.496E-08   AT NODE          7   DOF 11
 LARGEST INCREMENT OF TEMP.          104.       AT NODE          1   DOF 11
 LARGEST CORRECTION TO TEMP.       -6.207E-02   AT NODE          7   DOF 11
          THE HEAT FLUX EQUILIBRIUM EQUATIONS HAVE CONVERGED

 MAXIMUM NON-PRESCRIBED INCREMENT IN TEMPERATURE IS   -84.4    

 ITERATION SUMMARY FOR THE INCREMENT:   2 TOTAL ITERATIONS, OF WHICH
   0 ARE SEVERE DISCONTINUITY ITERATIONS AND  2 ARE EQUILIBRIUM ITERATIONS.

 TIME INCREMENT COMPLETED   26.0    ,  FRACTION OF STEP COMPLETED  0.467    
 STEP TIME COMPLETED        421.    ,  TOTAL TIME COMPLETED         421.    


  INCREMENT    28 STARTS. ATTEMPT NUMBER  1, TIME INCREMENT   26.0    
 
	UNSYMMETRIC NEW DIRECT SPARSE SOLVER RUNNING ON
 	1 HOST x 1 MPI RANK PER HOST x 1 THREAD PER RANK
        NUMBER OF EQUATIONS:  64
        NUMBER OF RHS:        1
        NUMBER OF FLOPS:      4.378e+04
        SOLVER ELAPSED TIME:  0ms

               CONVERGENCE CHECKS FOR EQUILIBRIUM ITERATION     1


 AVERAGE FORCE                      0.100       TIME AVG. FORCE       2.947E-02
 LARGEST SCALED RESIDUAL FORCE      1.026E-03   AT NODE          2   DOF  1
  CORRESPONDING RESIDUAL FORCE      1.026E-03
 LARGEST INCREMENT OF DISP.        -1.660E-02   AT NODE          3   DOF  1
 LARGEST CORRECTION TO DISP.       -8.524E-04   AT NODE          3   DOF  1
          FORCE     EQUILIBRIUM NOT ACHIEVED WITHIN TOLERANCE.

 AVERAGE HEAT FLUX                  8.523E-04   TIME AVG. HEAT FLUX   1.053E-03
 LARGEST RESIDUAL HEAT FLUX        -5.664E-07   AT NODE          6   DOF 11
 LARGEST INCREMENT OF TEMP.          104.       AT NODE          1   DOF 11
 LARGEST CORRECTION TO TEMP.        -4.02       AT NODE          7   DOF 11
 ESTIMATE OF TEMP.    CORRECTION   -6.047E-02
 HEAT FLUX EQUILIB. ACCEPTED BASED ON SMALL RESIDUAL AND ESTIMATED CORRECTION
 
	UNSYMMETRIC NEW DIRECT SPARSE SOLVER RUNNING ON
 	1 HOST x 1 MPI RANK PER HOST x 1 THREAD PER RANK
        NUMBER OF EQUATIONS:  64
        NUMBER OF RHS:        1
        NUMBER OF FLOPS:      4.378e+04
        SOLVER ELAPSED TIME:  0ms

               CONVERGENCE CHECKS FOR EQUILIBRIUM ITERATION     2


 AVERAGE FORCE                      9.940E-02   TIME AVG. FORCE       2.946E-02
 LARGEST SCALED RESIDUAL FORCE      8.653E-05   AT NODE          7   DOF  3
  CORRESPONDING RESIDUAL FORCE      8.653E-05
 LARGEST INCREMENT OF DISP.        -1.667E-02   AT NODE          3   DOF  1
 LARGEST CORRECTION TO DISP.       -1.242E-04   AT NODE          7   DOF  2
          THE FORCE     EQUILIBRIUM EQUATIONS HAVE CONVERGED

 AVERAGE HEAT FLUX                  8.520E-04   TIME AVG. HEAT FLUX   1.053E-03
 LARGEST RESIDUAL HEAT FLUX        -9.823E-08   AT NODE          7   DOF 11
 LARGEST INCREMENT OF TEMP.          104.       AT NODE          1   DOF 11
 LARGEST CORRECTION TO TEMP.       -6.684E-02   AT NODE          7   DOF 11
          THE HEAT FLUX EQUILIBRIUM EQUATIONS HAVE CONVERGED

 MAXIMUM NON-PRESCRIBED INCREMENT IN TEMPERATURE IS   -88.5    

 ITERATION SUMMARY FOR THE INCREMENT:   2 TOTAL ITERATIONS, OF WHICH
   0 ARE SEVERE DISCONTINUITY ITERATIONS AND  2 ARE EQUILIBRIUM ITERATIONS.

 TIME INCREMENT COMPLETED   26.0    ,  FRACTION OF STEP COMPLETED  0.496    
 STEP TIME COMPLETED        447.    ,  TOTAL TIME COMPLETED         447.    


  INCREMENT    29 STARTS. ATTEMPT NUMBER  1, TIME INCREMENT   26.0    
 
	UNSYMMETRIC NEW DIRECT SPARSE SOLVER RUNNING ON
 	1 HOST x 1 MPI RANK PER HOST x 1 THREAD PER RANK
        NUMBER OF EQUATIONS:  64
        NUMBER OF RHS:        1
        NUMBER OF FLOPS:      4.378e+04
        SOLVER ELAPSED TIME:  0ms

               CONVERGENCE CHECKS FOR EQUILIBRIUM ITERATION     1


 AVERAGE FORCE                      0.104       TIME AVG. FORCE       3.203E-02
 LARGEST SCALED RESIDUAL FORCE      1.277E-03   AT NODE          2   DOF  1
  CORRESPONDING RESIDUAL FORCE      1.277E-03
 LARGEST INCREMENT OF DISP.        -1.732E-02   AT NODE          3   DOF  1
 LARGEST CORRECTION TO DISP.       -6.503E-04   AT NODE          3   DOF  1
          FORCE     EQUILIBRIUM NOT ACHIEVED WITHIN TOLERANCE.

 AVERAGE HEAT FLUX                  8.633E-04   TIME AVG. HEAT FLUX   1.047E-03
[...]
        NUMBER OF FLOPS:      4.378e+04
        SOLVER ELAPSED TIME:  0ms

               CONVERGENCE CHECKS FOR EQUILIBRIUM ITERATION     1


 AVERAGE FORCE                      0.121       TIME AVG. FORCE       7.296E-02
 LARGEST SCALED RESIDUAL FORCE      3.636E-04   AT NODE          7   DOF  2
  CORRESPONDING RESIDUAL FORCE      3.636E-04
 LARGEST INCREMENT OF DISP.        -9.081E-03   AT NODE          3   DOF  1
 LARGEST CORRECTION TO DISP.        2.727E-04   AT NODE          3   DOF  1
 ESTIMATE OF DISP.    CORRECTION   -5.618E-07
 FORCE     EQUILIB. ACCEPTED BASED ON SMALL RESIDUAL AND ESTIMATED CORRECTION

 AVERAGE HEAT FLUX                  9.879E-04   TIME AVG. HEAT FLUX   1.088E-03
 LARGEST RESIDUAL HEAT FLUX         2.230E-07   AT NODE          7   DOF 11
 LARGEST INCREMENT OF TEMP.         -96.8       AT NODE          7   DOF 11
 LARGEST CORRECTION TO TEMP.        -2.12       AT NODE          7   DOF 11
 ESTIMATE OF TEMP.    CORRECTION    1.309E-02
 HEAT FLUX EQUILIB. ACCEPTED BASED ON SMALL RESIDUAL AND ESTIMATED CORRECTION

 MAXIMUM NON-PRESCRIBED INCREMENT IN TEMPERATURE IS   -96.8    

 ITERATION SUMMARY FOR THE INCREMENT:   1 TOTAL ITERATIONS, OF WHICH
   0 ARE SEVERE DISCONTINUITY ITERATIONS AND  1 ARE EQUILIBRIUM ITERATIONS.

 TIME INCREMENT COMPLETED   11.9    ,  FRACTION OF STEP COMPLETED  0.932    
 STEP TIME COMPLETED        839.    ,  TOTAL TIME COMPLETED         839.    


  INCREMENT    53 STARTS. ATTEMPT NUMBER  1, TIME INCREMENT   11.9    
 
	UNSYMMETRIC NEW DIRECT SPARSE SOLVER RUNNING ON
 	1 HOST x 1 MPI RANK PER HOST x 1 THREAD PER RANK
        NUMBER OF EQUATIONS:  64
        NUMBER OF RHS:        1
        NUMBER OF FLOPS:      4.378e+04
        SOLVER ELAPSED TIME:  0ms

               CONVERGENCE CHECKS FOR EQUILIBRIUM ITERATION     1


 AVERAGE FORCE                      0.120       TIME AVG. FORCE       7.385E-02
 LARGEST SCALED RESIDUAL FORCE      5.260E-04   AT NODE          2   DOF  1
  CORRESPONDING RESIDUAL FORCE      5.260E-04
 LARGEST INCREMENT OF DISP.        -9.316E-03   AT NODE          3   DOF  1
 LARGEST CORRECTION TO DISP.       -2.350E-04   AT NODE          3   DOF  1
          FORCE     EQUILIBRIUM NOT ACHIEVED WITHIN TOLERANCE.

 AVERAGE HEAT FLUX                  1.020E-03   TIME AVG. HEAT FLUX   1.087E-03
 LARGEST RESIDUAL HEAT FLUX        -2.482E-07   AT NODE          6   DOF 11
 LARGEST INCREMENT OF TEMP.         -103.       AT NODE          7   DOF 11
 LARGEST CORRECTION TO TEMP.        -5.85       AT NODE          7   DOF 11
 ESTIMATE OF TEMP.    CORRECTION    3.098E-02
 HEAT FLUX EQUILIB. ACCEPTED BASED ON SMALL RESIDUAL AND ESTIMATED CORRECTION
 
	UNSYMMETRIC NEW DIRECT SPARSE SOLVER RUNNING ON
 	1 HOST x 1 MPI RANK PER HOST x 1 THREAD PER RANK
        NUMBER OF EQUATIONS:  64
        NUMBER OF RHS:        1
        NUMBER OF FLOPS:      4.378e+04
        SOLVER ELAPSED TIME:  0ms

               CONVERGENCE CHECKS FOR EQUILIBRIUM ITERATION     2


 AVERAGE FORCE                      0.131       TIME AVG. FORCE       7.406E-02
 LARGEST SCALED RESIDUAL FORCE     -5.487E-05   AT NODE          4   DOF  1
  CORRESPONDING RESIDUAL FORCE     -5.487E-05
 LARGEST INCREMENT OF DISP.        -9.223E-03   AT NODE          3   DOF  1
 LARGEST CORRECTION TO DISP.        9.278E-05   AT NODE          3   DOF  1
 ESTIMATE OF DISP.    CORRECTION   -9.680E-06
 FORCE     EQUILIB. ACCEPTED BASED ON SMALL RESIDUAL AND ESTIMATED CORRECTION

 AVERAGE HEAT FLUX                  1.019E-03   TIME AVG. HEAT FLUX   1.087E-03
 LARGEST RESIDUAL HEAT FLUX         6.269E-08   AT NODE          6   DOF 11
 LARGEST INCREMENT OF TEMP.         -103.       AT NODE          7   DOF 11
 LARGEST CORRECTION TO TEMP.       -1.418E-02   AT NODE          6   DOF 11
          THE HEAT FLUX EQUILIBRIUM EQUATIONS HAVE CONVERGED

 MAXIMUM NON-PRESCRIBED INCREMENT IN TEMPERATURE IS   -103.    
 

 ***NOTE: THE TIME INTEGRATION ACCURACY TOLERANCE HAS BEEN EXCEEDED.


  INCREMENT    53 STARTS. ATTEMPT NUMBER  2, TIME INCREMENT   9.86    
 
	UNSYMMETRIC NEW DIRECT SPARSE SOLVER RUNNING ON
 	1 HOST x 1 MPI RANK PER HOST x 1 THREAD PER RANK
        NUMBER OF EQUATIONS:  64
        NUMBER OF RHS:        1
        NUMBER OF FLOPS:      4.378e+04
        SOLVER ELAPSED TIME:  0ms

               CONVERGENCE CHECKS FOR EQUILIBRIUM ITERATION     1


 AVERAGE FORCE                      0.121       TIME AVG. FORCE       7.386E-02
 LARGEST SCALED RESIDUAL FORCE      2.192E-04   AT NODE          2   DOF  1
  CORRESPONDING RESIDUAL FORCE      2.192E-04
 LARGEST INCREMENT OF DISP.        -7.599E-03   AT NODE          3   DOF  1
 LARGEST CORRECTION TO DISP.       -8.113E-05   AT NODE          3   DOF  1
 ESTIMATE OF DISP.    CORRECTION    1.395E-07
 FORCE     EQUILIB. ACCEPTED BASED ON SMALL RESIDUAL AND ESTIMATED CORRECTION

 AVERAGE HEAT FLUX                  2.000E-03   TIME AVG. HEAT FLUX   1.105E-03
 LARGEST RESIDUAL HEAT FLUX        -1.020E-08   AT NODE          6   DOF 11
 LARGEST INCREMENT OF TEMP.         -80.4       AT NODE          7   DOF 11
 LARGEST CORRECTION TO TEMP.       -0.203       AT NODE          7   DOF 11
          THE HEAT FLUX EQUILIBRIUM EQUATIONS HAVE CONVERGED

 MAXIMUM NON-PRESCRIBED INCREMENT IN TEMPERATURE IS   -80.4    

 ITERATION SUMMARY FOR THE INCREMENT:   1 TOTAL ITERATIONS, OF WHICH
   0 ARE SEVERE DISCONTINUITY ITERATIONS AND  1 ARE EQUILIBRIUM ITERATIONS.

 TIME INCREMENT COMPLETED   9.86    ,  FRACTION OF STEP COMPLETED  0.943    
 STEP TIME COMPLETED        848.    ,  TOTAL TIME COMPLETED         848.    


  INCREMENT    54 STARTS. ATTEMPT NUMBER  1, TIME INCREMENT   9.86    
 
	UNSYMMETRIC NEW DIRECT SPARSE SOLVER RUNNING ON
 	1 HOST x 1 MPI RANK PER HOST x 1 THREAD PER RANK
        NUMBER OF EQUATIONS:  64
        NUMBER OF RHS:        1
        NUMBER OF FLOPS:      4.378e+04
        SOLVER ELAPSED TIME:  0ms

               CONVERGENCE CHECKS FOR EQUILIBRIUM ITERATION     1


 AVERAGE FORCE                      0.120       TIME AVG. FORCE       7.471E-02
 LARGEST SCALED RESIDUAL FORCE      4.437E-04   AT NODE          7   DOF  2
  CORRESPONDING RESIDUAL FORCE      4.437E-04
 LARGEST INCREMENT OF DISP.        -7.377E-03   AT NODE          3   DOF  1
 LARGEST CORRECTION TO DISP.        2.229E-04   AT NODE          3   DOF  1
          FORCE     EQUILIBRIUM NOT ACHIEVED WITHIN TOLERANCE.

 AVERAGE HEAT FLUX                  1.006E-03   TIME AVG. HEAT FLUX   1.103E-03
 LARGEST RESIDUAL HEAT FLUX        -4.522E-05   AT NODE          7   DOF 11
 LARGEST INCREMENT OF TEMP.         -81.8       AT NODE          7   DOF 11
 LARGEST CORRECTION TO TEMP.        -1.40       AT NODE          7   DOF 11
          HEAT FLUX EQUILIBRIUM NOT ACHIEVED WITHIN TOLERANCE.
 
	UNSYMMETRIC NEW DIRECT SPARSE SOLVER RUNNING ON
 	1 HOST x 1 MPI RANK PER HOST x 1 THREAD PER RANK
        NUMBER OF EQUATIONS:  64
        NUMBER OF RHS:        1
        NUMBER OF FLOPS:      4.378e+04
        SOLVER ELAPSED TIME:  0ms

               CONVERGENCE CHECKS FOR EQUILIBRIUM ITERATION     2


 AVERAGE FORCE                      0.120       TIME AVG. FORCE       7.471E-02
 LARGEST SCALED RESIDUAL FORCE     -1.681E-04   AT NODE          3   DOF  1
  CORRESPONDING RESIDUAL FORCE     -1.681E-04
 LARGEST INCREMENT OF DISP.        -7.234E-03   AT NODE          3   DOF  1
 LARGEST CORRECTION TO DISP.        1.423E-04   AT NODE          3   DOF  1
 ESTIMATE OF DISP.    CORRECTION   -5.391E-05
 FORCE     EQUILIB. ACCEPTED BASED ON SMALL RESIDUAL AND ESTIMATED CORRECTION

 AVERAGE HEAT FLUX                  9.820E-04   TIME AVG. HEAT FLUX   1.103E-03
 LARGEST RESIDUAL HEAT FLUX         1.135E-07   AT NODE          7   DOF 11
 LARGEST INCREMENT OF TEMP.         -90.0       AT NODE          7   DOF 11
 LARGEST CORRECTION TO TEMP.        -8.20       AT NODE          7   DOF 11
 ESTIMATE OF TEMP.    CORRECTION    3.253E-02
 HEAT FLUX EQUILIB. ACCEPTED BASED ON SMALL RESIDUAL AND ESTIMATED CORRECTION

 MAXIMUM NON-PRESCRIBED INCREMENT IN TEMPERATURE IS   -90.0    

 ITERATION SUMMARY FOR THE INCREMENT:   2 TOTAL ITERATIONS, OF WHICH
   0 ARE SEVERE DISCONTINUITY ITERATIONS AND  2 ARE EQUILIBRIUM ITERATIONS.

 TIME INCREMENT COMPLETED   9.86    ,  FRACTION OF STEP COMPLETED  0.954    
 STEP TIME COMPLETED        858.    ,  TOTAL TIME COMPLETED         858.    


  INCREMENT    55 STARTS. ATTEMPT NUMBER  1, TIME INCREMENT   9.86    
 
	UNSYMMETRIC NEW DIRECT SPARSE SOLVER RUNNING ON
 	1 HOST x 1 MPI RANK PER HOST x 1 THREAD PER RANK
        NUMBER OF EQUATIONS:  64
        NUMBER OF RHS:        1
        NUMBER OF FLOPS:      4.378e+04
        SOLVER ELAPSED TIME:  0ms

               CONVERGENCE CHECKS FOR EQUILIBRIUM ITERATION     1


 AVERAGE FORCE                      0.119       TIME AVG. FORCE       7.552E-02
 LARGEST SCALED RESIDUAL FORCE     -1.711E-04   AT NODE          4   DOF  3
  CORRESPONDING RESIDUAL FORCE     -1.711E-04
 LARGEST INCREMENT OF DISP.        -7.408E-03   AT NODE          3   DOF  1
 LARGEST CORRECTION TO DISP.       -1.742E-04   AT NODE          3   DOF  1
 ESTIMATE OF DISP.    CORRECTION   -2.717E-07
 FORCE     EQUILIB. ACCEPTED BASED ON SMALL RESIDUAL AND ESTIMATED CORRECTION

 AVERAGE HEAT FLUX                  9.890E-04   TIME AVG. HEAT FLUX   1.101E-03
 LARGEST RESIDUAL HEAT FLUX        -4.825E-08   AT NODE          7   DOF 11
 LARGEST INCREMENT OF TEMP.         -83.4       AT NODE          7   DOF 11
 LARGEST CORRECTION TO TEMP.         6.60       AT NODE          7   DOF 11
 ESTIMATE OF TEMP.    CORRECTION    1.260E-02
 HEAT FLUX EQUILIB. ACCEPTED BASED ON SMALL RESIDUAL AND ESTIMATED CORRECTION

 MAXIMUM NON-PRESCRIBED INCREMENT IN TEMPERATURE IS   -83.4    

 ITERATION SUMMARY FOR THE INCREMENT:   1 TOTAL ITERATIONS, OF WHICH
   0 ARE SEVERE DISCONTINUITY ITERATIONS AND  1 ARE EQUILIBRIUM ITERATIONS.

 TIME INCREMENT COMPLETED   9.86    ,  FRACTION OF STEP COMPLETED  0.965    
 STEP TIME COMPLETED        868.    ,  TOTAL TIME COMPLETED         868.    


  INCREMENT    56 STARTS. ATTEMPT NUMBER  1, TIME INCREMENT   9.86    
 
	UNSYMMETRIC NEW DIRECT SPARSE SOLVER RUNNING ON
 	1 HOST x 1 MPI RANK PER HOST x 1 THREAD PER RANK
        NUMBER OF EQUATIONS:  64
        NUMBER OF RHS:        1
        NUMBER OF FLOPS:      4.378e+04
        SOLVER ELAPSED TIME:  0ms

               CONVERGENCE CHECKS FOR EQUILIBRIUM ITERATION     1


 AVERAGE FORCE                      0.124       TIME AVG. FORCE       7.639E-02
 LARGEST SCALED RESIDUAL FORCE     -1.627E-04   AT NODE          3   DOF  1
  CORRESPONDING RESIDUAL FORCE     -1.627E-04
 LARGEST INCREMENT OF DISP.        -7.129E-03   AT NODE          3   DOF  1
 LARGEST CORRECTION TO DISP.        2.794E-04   AT NODE          3   DOF  1
 ESTIMATE OF DISP.    CORRECTION    4.091E-07
 FORCE     EQUILIB. ACCEPTED BASED ON SMALL RESIDUAL AND ESTIMATED CORRECTION

 AVERAGE HEAT FLUX                  9.828E-04   TIME AVG. HEAT FLUX   1.099E-03
 LARGEST RESIDUAL HEAT FLUX         1.623E-07   AT NODE          6   DOF 11
 LARGEST INCREMENT OF TEMP.         -84.8       AT NODE          7   DOF 11
 LARGEST CORRECTION TO TEMP.        -1.41       AT NODE          7   DOF 11
 ESTIMATE OF TEMP.    CORRECTION    7.971E-03
 HEAT FLUX EQUILIB. ACCEPTED BASED ON SMALL RESIDUAL AND ESTIMATED CORRECTION

 MAXIMUM NON-PRESCRIBED INCREMENT IN TEMPERATURE IS   -84.8    

 ITERATION SUMMARY FOR THE INCREMENT:   1 TOTAL ITERATIONS, OF WHICH
   0 ARE SEVERE DISCONTINUITY ITERATIONS AND  1 ARE EQUILIBRIUM ITERATIONS.

 TIME INCREMENT COMPLETED   9.86    ,  FRACTION OF STEP COMPLETED  0.975    
 STEP TIME COMPLETED        878.    ,  TOTAL TIME COMPLETED         878.    


  INCREMENT    57 STARTS. ATTEMPT NUMBER  1, TIME INCREMENT   9.86    
 
	UNSYMMETRIC NEW DIRECT SPARSE SOLVER RUNNING ON
 	1 HOST x 1 MPI RANK PER HOST x 1 THREAD PER RANK
        NUMBER OF EQUATIONS:  64
        NUMBER OF RHS:        1
        NUMBER OF FLOPS:      4.378e+04
        SOLVER ELAPSED TIME:  0ms

               CONVERGENCE CHECKS FOR EQUILIBRIUM ITERATION     1


 AVERAGE FORCE                      0.118       TIME AVG. FORCE       7.713E-02
 LARGEST SCALED RESIDUAL FORCE      9.443E-04   AT NODE          7   DOF  2
  CORRESPONDING RESIDUAL FORCE      9.443E-04
 LARGEST INCREMENT OF DISP.        -6.978E-03   AT NODE          3   DOF  1
 LARGEST CORRECTION TO DISP.        1.681E-04   AT NODE          7   DOF  2
          FORCE     EQUILIBRIUM NOT ACHIEVED WITHIN TOLERANCE.

 AVERAGE HEAT FLUX                  9.929E-04   TIME AVG. HEAT FLUX   1.097E-03
 LARGEST RESIDUAL HEAT FLUX        -6.490E-05   AT NODE          5   DOF 11
 LARGEST INCREMENT OF TEMP.         -95.0       AT NODE          7   DOF 11
 LARGEST CORRECTION TO TEMP.        -10.2       AT NODE          7   DOF 11
          HEAT FLUX EQUILIBRIUM NOT ACHIEVED WITHIN TOLERANCE.
 
	UNSYMMETRIC NEW DIRECT SPARSE SOLVER RUNNING ON
 	1 HOST x 1 MPI RANK PER HOST x 1 THREAD PER RANK
        NUMBER OF EQUATIONS:  64
        NUMBER OF RHS:        1
        NUMBER OF FLOPS:      4.378e+04
        SOLVER ELAPSED TIME:  0ms

               CONVERGENCE CHECKS FOR EQUILIBRIUM ITERATION     2


 AVERAGE FORCE                      0.118       TIME AVG. FORCE       7.713E-02
 LARGEST SCALED RESIDUAL FORCE     -4.111E-04   AT NODE          2   DOF  1
  CORRESPONDING RESIDUAL FORCE     -4.111E-04
 LARGEST INCREMENT OF DISP.        -6.736E-03   AT NODE          3   DOF  1
 LARGEST CORRECTION TO DISP.        2.416E-04   AT NODE          3   DOF  1
          FORCE     EQUILIBRIUM NOT ACHIEVED WITHIN TOLERANCE.

 AVERAGE HEAT FLUX                  9.287E-04   TIME AVG. HEAT FLUX   1.096E-03
 LARGEST RESIDUAL HEAT FLUX         2.867E-07   AT NODE          6   DOF 11
 LARGEST INCREMENT OF TEMP.         -90.2       AT NODE          7   DOF 11
 LARGEST CORRECTION TO TEMP.        -9.44       AT NODE          5   DOF 11
 ESTIMATE OF TEMP.    CORRECTION    4.170E-02
 HEAT FLUX EQUILIB. ACCEPTED BASED ON SMALL RESIDUAL AND ESTIMATED CORRECTION
 
	UNSYMMETRIC NEW DIRECT SPARSE SOLVER RUNNING ON
 	1 HOST x 1 MPI RANK PER HOST x 1 THREAD PER RANK
        NUMBER OF EQUATIONS:  64
        NUMBER OF RHS:        1
        NUMBER OF FLOPS:      4.378e+04
        SOLVER ELAPSED TIME:  0ms

               CONVERGENCE CHECKS FOR EQUILIBRIUM ITERATION     3


 AVERAGE FORCE                      0.158       TIME AVG. FORCE       7.782E-02
 LARGEST SCALED RESIDUAL FORCE     -1.072E-04   AT NODE          7   DOF  3
  CORRESPONDING RESIDUAL FORCE     -1.072E-04
 LARGEST INCREMENT OF DISP.        -6.787E-03   AT NODE          3   DOF  1
 LARGEST CORRECTION TO DISP.       -6.099E-05   AT NODE          1   DOF  1
          THE FORCE     EQUILIBRIUM EQUATIONS HAVE CONVERGED

 AVERAGE HEAT FLUX                  1.857E-03   TIME AVG. HEAT FLUX   1.112E-03
 LARGEST RESIDUAL HEAT FLUX        -7.236E-09   AT NODE          6   DOF 11
 LARGEST INCREMENT OF TEMP.         -90.2       AT NODE          7   DOF 11
 LARGEST CORRECTION TO TEMP.        1.621E-02   AT NODE          7   DOF 11
          THE HEAT FLUX EQUILIBRIUM EQUATIONS HAVE CONVERGED

 MAXIMUM NON-PRESCRIBED INCREMENT IN TEMPERATURE IS   -90.2    

 ITERATION SUMMARY FOR THE INCREMENT:   3 TOTAL ITERATIONS, OF WHICH
   0 ARE SEVERE DISCONTINUITY ITERATIONS AND  3 ARE EQUILIBRIUM ITERATIONS.

 TIME INCREMENT COMPLETED   9.86    ,  FRACTION OF STEP COMPLETED  0.986    
 STEP TIME COMPLETED        888.    ,  TOTAL TIME COMPLETED         888.    


  INCREMENT    58 STARTS. ATTEMPT NUMBER  1, TIME INCREMENT   9.86    
 
	UNSYMMETRIC NEW DIRECT SPARSE SOLVER RUNNING ON
 	1 HOST x 1 MPI RANK PER HOST x 1 THREAD PER RANK
        NUMBER OF EQUATIONS:  64
        NUMBER OF RHS:        1
        NUMBER OF FLOPS:      4.378e+04
        SOLVER ELAPSED TIME:  0ms

               CONVERGENCE CHECKS FOR EQUILIBRIUM ITERATION     1


 AVERAGE FORCE                      0.118       TIME AVG. FORCE       7.851E-02
 LARGEST SCALED RESIDUAL FORCE      3.421E-04   AT NODE          2   DOF  1
  CORRESPONDING RESIDUAL FORCE      3.421E-04
 LARGEST INCREMENT OF DISP.        -6.915E-03   AT NODE          3   DOF  1
 LARGEST CORRECTION TO DISP.       -1.285E-04   AT NODE          3   DOF  1
 ESTIMATE OF DISP.    CORRECTION    4.582E-07
 FORCE     EQUILIB. ACCEPTED BASED ON SMALL RESIDUAL AND ESTIMATED CORRECTION

 AVERAGE HEAT FLUX                  9.656E-04   TIME AVG. HEAT FLUX   1.110E-03
 LARGEST RESIDUAL HEAT FLUX        -1.633E-07   AT NODE          6   DOF 11
 LARGEST INCREMENT OF TEMP.         -89.0       AT NODE          7   DOF 11
 LARGEST CORRECTION TO TEMP.         6.05       AT NODE          8   DOF 11
 ESTIMATE OF TEMP.    CORRECTION   -2.248E-02
 HEAT FLUX EQUILIB. ACCEPTED BASED ON SMALL RESIDUAL AND ESTIMATED CORRECTION

 MAXIMUM NON-PRESCRIBED INCREMENT IN TEMPERATURE IS   -89.0    

 ITERATION SUMMARY FOR THE INCREMENT:   1 TOTAL ITERATIONS, OF WHICH
   0 ARE SEVERE DISCONTINUITY ITERATIONS AND  1 ARE EQUILIBRIUM ITERATIONS.

 TIME INCREMENT COMPLETED   9.86    ,  FRACTION OF STEP COMPLETED  0.997    
 STEP TIME COMPLETED        898.    ,  TOTAL TIME COMPLETED         898.    


  INCREMENT    59 STARTS. ATTEMPT NUMBER  1, TIME INCREMENT   2.35    
 
	UNSYMMETRIC NEW DIRECT SPARSE SOLVER RUNNING ON
 	1 HOST x 1 MPI RANK PER HOST x 1 THREAD PER RANK
        NUMBER OF EQUATIONS:  64
        NUMBER OF RHS:        1
        NUMBER OF FLOPS:      4.378e+04
        SOLVER ELAPSED TIME:  0ms

               CONVERGENCE CHECKS FOR EQUILIBRIUM ITERATION     1


 AVERAGE FORCE                      0.118       TIME AVG. FORCE       7.917E-02
 LARGEST SCALED RESIDUAL FORCE     -1.845E-04   AT NODE          2   DOF  1
  CORRESPONDING RESIDUAL FORCE     -1.845E-04
 LARGEST INCREMENT OF DISP.        -1.414E-03   AT NODE          3   DOF  1
 LARGEST CORRECTION TO DISP.        2.360E-04   AT NODE          3   DOF  1
 ESTIMATE OF DISP.    CORRECTION    3.121E-06
 FORCE     EQUILIB. ACCEPTED BASED ON SMALL RESIDUAL AND ESTIMATED CORRECTION

 AVERAGE HEAT FLUX                  8.466E-04   TIME AVG. HEAT FLUX   1.105E-03
 LARGEST RESIDUAL HEAT FLUX         1.522E-07   AT NODE          6   DOF 11
 LARGEST INCREMENT OF TEMP.         -27.3       AT NODE          7   DOF 11
 LARGEST CORRECTION TO TEMP.        -6.02       AT NODE          7   DOF 11
 ESTIMATE OF TEMP.    CORRECTION    6.092E-03
 HEAT FLUX EQUILIB. ACCEPTED BASED ON SMALL RESIDUAL AND ESTIMATED CORRECTION

 MAXIMUM NON-PRESCRIBED INCREMENT IN TEMPERATURE IS   -27.3    

 ITERATION SUMMARY FOR THE INCREMENT:   1 TOTAL ITERATIONS, OF WHICH
   0 ARE SEVERE DISCONTINUITY ITERATIONS AND  1 ARE EQUILIBRIUM ITERATIONS.

 TIME INCREMENT COMPLETED   2.35    ,  FRACTION OF STEP COMPLETED   1.00    
 STEP TIME COMPLETED        900.    ,  TOTAL TIME COMPLETED         900.    


          THE ANALYSIS HAS BEEN COMPLETED



     ANALYSIS SUMMARY:
     TOTAL OF         59  INCREMENTS
                       7  CUTBACKS IN AUTOMATIC INCREMENTATION
                     114  ITERATIONS INCLUDING CONTACT ITERATIONS IF PRESENT
                     114  PASSES THROUGH THE EQUATION SOLVER OF WHICH 
                     114  INVOLVE MATRIX DECOMPOSITION, INCLUDING
                       0  DECOMPOSITION(S) OF THE MASS MATRIX
                       1  REORDERING OF EQUATIONS TO MINIMIZE WAVEFRONT
                       0  ADDITIONAL RESIDUAL EVALUATIONS FOR LINE SEARCHES
                       0  ADDITIONAL OPERATOR EVALUATIONS FOR LINE SEARCHES
                       4  WARNING MESSAGES DURING USER INPUT PROCESSING
                       1  WARNING MESSAGES DURING ANALYSIS
                       0  ANALYSIS WARNINGS ARE NUMERICAL PROBLEM MESSAGES
                       0  ANALYSIS WARNINGS ARE NEGATIVE EIGENVALUE MESSAGES
                       0  ERROR MESSAGES



     JOB TIME SUMMARY
       USER TIME (SEC)      =     0.71    
       SYSTEM TIME (SEC)    =     0.17    
       TOTAL CPU TIME (SEC) =     0.88    
       WALLCLOCK TIME (SEC) =            1
       MEMORY PEAK (GB)     =            2
